8

C         -2.66243        0.10814        0.00000
C         -1.41206        0.10814        0.00000
H         -3.01909       -0.39917       -0.87196
H         -2.86964        0.98884       -0.00337
H         -2.95786       -0.12797        0.87533
H         -0.94399        0.54278       -0.87533
H         -0.77792       -0.66588        0.00337
H         -0.85122        0.28880        0.87196
