3
0.0 ps
C     -3.8481199998523024    0.7570100007722492    0.0
H     -2.5762000094143467    1.0165599991108065    0.0
H     -4.7453099923473365    1.9121599916781753    0.0
3
0.0025 ps
C     -3.8481014691540647    0.7571070956117633    0.0
H     -2.577383488639978    1.0164482668602206    0.0
H     -4.744347898535383    1.911113415475516    0.0
3
0.005 ps
C     -3.8480466020769066    0.757397044898412    0.0
H     -2.58091374264179    1.0161155578731411    0.0
H     -4.741474575832689    1.9079862991831453    0.0
3
0.007500000000000001 ps
C     -3.84795691949441    0.7578793042864053    0.0
H     -2.5867711165818355    1.0155655071708551    0.0
H     -4.736693665637274    1.9027802631871324    0.0
3
0.01 ps
C     -3.8478350023173657    0.7585528953518159    0.0
H     -2.5949209665307382    1.014804474541922    0.0
H     -4.73001113802893    1.895499384802744    0.0
3
0.0125 ps
C     -3.8476845632958008    0.7594162851133205    0.0
H     -2.6053119431863014    1.0138418966924192    0.0
H     -4.7214361418969695    1.8861512862892384    0.0
3
0.015000000000000001 ps
C     -3.8475105438535135    0.7604672075096562    0.0
H     -2.6178735506363227    1.0126907892487076    0.0
H     -4.710982279849768    1.8747487662809053    0.0
3
0.0175 ps
C     -3.8473192309950592    0.7617024165217283    0.0
H     -2.6325129510092307    1.0113684062993036    0.0
H     -4.698669395614512    1.8613120903495661    0.0
3
0.02 ps
C     -3.847118385556119    0.7631173573159968    0.0
H     -2.6491109998286966    1.009897063056336    0.0
H     -4.6845259925559    1.8458720980927168    0.0
3
0.022500000000000003 ps
C     -3.846917367286214    0.7647057384553722    0.0
H     -2.667517532377637    1.0083051209025418    0.0
H     -4.668592435359334    1.8284743302773023    0.0
3
0.025 ps
C     -3.8467272338300997    0.766458985266796    0.0
H     -2.6875459884773276    1.0066281215200694    0.0
H     -4.650925120232419    1.8091844275285982    0.0
3
0.027500000000000004 ps
C     -3.8465607791143155    0.7683655526707195    0.0
H     -2.708967574021864    1.0049100354462603    0.0
H     -4.631601825910604    1.7880950948177228    0.0
3
0.030000000000000002 ps
C     -3.8464324619473595    0.7704100766332501    0.0
H     -2.7315053250327175    1.0032045575641855    0.0
H     -4.61072846568695    1.765334948772785    0.0
3
0.0325 ps
C     -3.846358158985425    0.7725723493998401    0.0
H     -2.7548286728489395    1.0015763356010845    0.0
H     -4.588447426669316    1.7410795398495926    0.0
3
0.035 ps
C     -3.8463546611562287    0.7748261188161973    0.0
H     -2.7785494046635764    1.0001019576520027    0.0
H     -4.564947568054346    1.7155647208437208    0.0
3
0.037500000000000006 ps
C     -3.8464388289657707    0.7771377422871926    0.0
H     -2.802220245220346    0.998870455503828    0.0
H     -4.540475696531332    1.6891022416300716    0.0
3
0.04 ps
C     -3.8466263287249567    0.779464779192514    0.0
H     -2.8253375866191375    0.9979830140053705    0.0
H     -4.515348864377486    1.6620968808396224    0.0
3
0.0425 ps
C     -3.8469299268730364    0.7817546904953263    0.0
H     -2.847350044335639    0.9975515348790787    0.0
H     -4.489966058238164    1.6350634533867752    0.0
3
0.045000000000000005 ps
C     -3.847357437759229    0.7839439359098892    0.0
H     -2.867674348816468    0.9976956781994633    0.0
H     -4.464816718176306    1.6086405660414211    0.0
3
0.0475 ps
C     -3.8479095833642445    0.7859579092429678    0.0
H     -2.885719409575796    0.998537866231914    0.0
H     -4.440482142925164    1.583596092966763    0.0
3
0.05 ps
C     -3.8485782380974918    0.7877122939750805    0.0
H     -2.90091810063634    1.0001970205078576    0.0
H     -4.417624595864726    1.5608174325108615    0.0
3
0.052500000000000005 ps
C     -3.8493457049369373    0.7891164690461436    0.0
H     -2.9127645007925733    1.0027809856743977    0.0
H     -4.396958681074389    1.5412787063786966    0.0
3
0.05500000000000001 ps
C     -3.8501856666574454    0.7900794166221144    0.0
H     -2.9208523622793092    1.0063780521729395    0.0
H     -4.379201549810508    1.5259788123994702    0.0
3
0.0575 ps
C     -3.851066136436027    0.790518050270014    0.0
H     -2.924909135884129    1.011048758640467    0.0
H     -4.365003751937186    1.515850288467555    0.0
3
0.060000000000000005 ps
C     -3.8519540725610697    0.790366990167327    0.0
H     -2.9248197607011543    1.0168191160710984    0.0
H     -4.354870626070401    1.5116494017347826    0.0
3
0.0625 ps
C     -3.852820547482136    0.7895878264846923    0.0
H     -2.9206374379254534    1.0236762929397119    0.0
H     -4.349091960940433    1.5138488959649172    0.0
3
0.065 ps
C     -3.853644916386169    0.7881754954165637    0.0
H     -2.912575660362101    1.031567472535888    0.0
H     -4.347700222155471    1.5225595665624703    0.0
3
0.0675 ps
C     -3.8544166829216486    0.7861597555230279    0.0
H     -2.900983517963252    1.0404020781495669    0.0
H     -4.350472310697767    1.5375130671987165    0.0
3
0.07 ps
C     -3.855134688218755    0.7836012264431915    0.0
H     -2.886312283479072    1.0500570097961635    0.0
H     -4.356973966316246    1.55810577014257    0.0
3
0.07250000000000001 ps
C     -3.855804304734457    0.7805832122891982    0.0
H     -2.869077384043258    1.0603841017048365    0.0
H     -4.366628771460508    1.583489013138312    0.0
3
0.07500000000000001 ps
C     -3.8564338921234227    0.7772016234963771    0.0
H     -2.8498212994943546    1.0712187444896804    0.0
H     -4.378797060382983    1.61268079771301    0.0
3
0.0775 ps
C     -3.8570316803879514    0.7735553727053853    0.0
H     -2.8290816495200652    1.0823885780476998    0.0
H     -4.392844990184241    1.6446716984112608    0.0
3
0.08 ps
C     -3.8576037236706098    0.7697388510299349    0.0
H     -2.8073668472398827    1.093721334025367    0.0
H     -4.408193317520871    1.6785067530978337    0.0
3
0.0825 ps
C     -3.858153008950797    0.7658370725957655    0.0
H     -2.7851399034699287    1.1050512158575763    0.0
H     -4.424344277533028    1.7133369500977407    0.0
3
0.085 ps
C     -3.8586794550164254    0.7619232841576155    0.0
H     -2.7628096512056644    1.116223549384153    0.0
H     -4.440890438368381    1.7484430195660634    0.0
3
0.08750000000000001 ps
C     -3.85918043169405    0.7580584399240252    0.0
H     -2.7407279361790438    1.1270977312712045    0.0
H     -4.457511388316924    1.7832386708292727    0.0
3
0.09000000000000001 ps
C     -3.8596514809125395    0.7542918714151055    0.0
H     -2.7191911028493236    1.1375486995821014    0.0
H     -4.47396371720561    1.8172610546630013    0.0
3
0.09250000000000001 ps
C     -3.8600870299253454    0.7506625911578164    0.0
H     -2.6984442265429296    1.1474672459348882    0.0
H     -4.490068338283653    1.8501548305138589    0.0
3
0.095 ps
C     -3.860480989719269    0.7472008342360054    0.0
H     -2.6786868330338645    1.156759503258661    0.0
H     -4.505697683515073    1.8816542304416815    0.0
3
0.0975 ps
C     -3.8608272040136904    0.7439295940987364    0.0
H     -2.6600791816746443    1.1653459075741899    0.0
H     -4.520764108559729    1.9115657275220195    0.0
3
0.1 ps
C     -3.861119755505149    0.7408660232764465    0.0
H     -2.642748493962567    1.1731598736519995    0.0
H     -4.53521004675368    1.9397526111763528    0.0
3
0.10250000000000001 ps
C     -3.861353154367733    0.7380226447013505    0.0
H     -2.6267947543293815    1.1801463618410954    0.0
H     -4.548999987953478    1.966121938766372    0.0
3
0.10500000000000001 ps
C     -3.8615224385697986    0.7354083635229299    0.0
H     -2.6122958884968885    1.186260457493975    0.0
H     -4.562114125407243    1.990613861334189    0.0
3
0.10750000000000001 ps
C     -3.8616232131933894    0.7330292924127069    0.0
H     -2.5993122448813613    1.1914660396479464    0.0
H     -4.574543421966572    2.0131930905903768    0.0
3
0.11000000000000001 ps
C     -3.861651650938461    0.7308894133872361    0.0
H     -2.5878903789614687    1.1957345825026742    0.0
H     -4.586285832131032    2.0338421878028066    0.0
3
0.1125 ps
C     -3.861604472118345    0.7289911017838343    0.0
H     -2.578066181959502    1.1990441103599474    0.0
H     -4.597343438545585    2.052556347195776    0.0
3
0.115 ps
C     -3.861478916166611    0.7273355367982123    0.0
H     -2.5698674142723945    1.201378311973603    0.0
H     -4.607720297748658    2.06933937596403    0.0
3
0.11750000000000001 ps
C     -3.8612727058643896    0.7259230200693987    0.0
H     -2.5633157088626457    1.202725811609038    0.0
H     -4.6174208282635805    2.0842006166763225    0.0
3
0.12000000000000001 ps
C     -3.8609840188934217    0.7247532203530304    0.0
H     -2.55842810592938    1.2030795892404045    0.0
H     -4.626448609046242    2.0971526034124564    0.0
3
0.12250000000000001 ps
C     -3.8606114690765683    0.7238253589558818    0.0
H     -2.555218171406904    1.2024362966434787    0.0
H     -4.634805485856247    2.1082092846843445    0.0
3
0.125 ps
C     -3.8601540997533355    0.7231383475458562    0.0
H     -2.5536967408746247    1.2007955585361145    0.0
H     -4.642490906636758    2.117384681760872    0.0
3
0.1275 ps
C     -3.8596113919133237    0.7226908873567435    0.0
H     -2.553872379827803    1.1981603355573074    0.0
H     -4.649501426009408    2.124691880452401    0.0
3
0.13 ps
C     -3.8589832895988656    0.722481536720609    0.0
H     -2.5557523029315004    1.1945369763281142    0.0
H     -4.655830335201035    2.1301422785741613    0.0
3
0.1325 ps
C     -3.858270245380626    0.7225087512471235    0.0
H     -2.5593418929244254    1.1899352873741267    0.0
H     -4.661467385126513    2.1337450302544174    0.0
3
0.135 ps
C     -3.8574732890025336    0.7227708918091896    0.0
H     -2.5646434095701616    1.1843687250103916    0.0
H     -4.666398578441075    2.135506642932132    0.0
3
0.1375 ps
C     -3.8565941228106544    0.723266224777877    0.0
H     -2.5716549863721334    1.1778547131458756    0.0
H     -4.670606013147803    2.1354306462871477    0.0
3
0.14 ps
C     -3.8556352483975154    0.7239929078607407    0.0
H     -2.5803692317564346    1.1704150930088062    0.0
H     -4.6740677661519765    2.133516534512471    0.0
3
0.14250000000000002 ps
C     -3.8546001297150134    0.7249489497299384    0.0
H     -2.5907713622862687    1.1620767122251765    0.0
H     -4.676757808874299    2.1297597595249917    0.0
3
0.14500000000000002 ps
C     -3.853493398501411    0.7261321508104519    0.0
H     -2.602836799742236    1.1528721599488285    0.0
H     -4.678645953114296    2.1241524991309166    0.0
3
0.14750000000000002 ps
C     -3.852321108211242    0.7275400249722449    0.0
H     -2.6165281539773146    1.1428406517667573    0.0
H     -4.679697831144845    2.1166837368578597    0.0
3
0.15000000000000002 ps
C     -3.8510910425400247    0.7291697016280195    0.0
H     -2.6317915108384815    1.1320290621305518    0.0
H     -4.679874921894759    2.107339399404309    0.0
3
0.15250000000000002 ps
C     -3.84981308345488    0.7310178080208702    0.0
H     -2.6485519529707666    1.1204930905546302    0.0
H     -4.679134942985715    2.096102597300818    0.0
3
0.155 ps
C     -3.8484996407233525    0.7330803322345888    0.0
H     -2.6667082694799307    1.1082985289124905    0.0
H     -4.677432244035076    2.082953995223762    0.0
3
0.1575 ps
C     -3.8471661392454104    0.7353524688896094    0.0
H     -2.6861268685910833    1.095522567839134    0.0
H     -4.674717601569955    2.06787235065861    0.0
3
0.16 ps
C     -3.8458315507038874    0.7378284517091943    0.0
H     -2.706635010583406    1.08225503801139    0.0
H     -4.670938576748395    2.0508352753287644    0.0
3
0.1625 ps
C     -3.8445189406325553    0.7405013800413063    0.0
H     -2.7280136459092206    1.0685994263112317    0.0
H     -4.666040130425699    2.0318202949369817    0.0
3
0.165 ps
C     -3.8432559793293826    0.7433630498209226    0.0
H     -2.7499903913841757    1.054673438380342    0.0
H     -4.659965527198514    2.0108063106614407    0.0
3
0.1675 ps
C     -3.8420753341994476    0.7464038025425688    0.0
H     -2.772233514683448    1.040608805261111    0.0
H     -4.652657641338142    1.9877756027875435    0.0
3
0.17 ps
C     -3.8410148230310104    0.749612406918994    0.0
H     -2.7943482106789483    1.0265499698830838    0.0
H     -4.644060818955742    1.9627165655064924    0.0
3
0.17250000000000001 ps
C     -3.8401171669428162    0.7529759842547791    0.0
H     -2.8158768852118623    1.0126512694775085    0.0
H     -4.634123505635562    1.9356274250033387    0.0
3
0.17500000000000002 ps
C     -3.8394291485080423    0.7564799763315874    0.0
H     -2.8363054880379615    0.9990722962425078    0.0
H     -4.622801919924094    1.9065212725781782    0.0
3
0.17750000000000002 ps
C     -3.8389999718969396    0.7601081297645026    0.0
H     -2.8550779520160305    0.9859713189821413    0.0
H     -4.61006514203591    1.8754328404697649    0.0
3
0.18000000000000002 ps
C     -3.838878659816032    0.7638424313331291    0.0
H     -2.871620239417666    0.9734970130270519    0.0
H     -4.595902091799535    1.8424275543622914    0.0
3
0.18250000000000002 ps
C     -3.839110433452888    0.7676628783163651    0.0
H     -2.885374144354632    0.9617792496213196    0.0
H     -4.580330979504243    1.8076134952959206    0.0
3
0.18500000000000003 ps
C     -3.839732187470114    0.7715469195059302    0.0
H     -2.895838834000267    0.9509202235451208    0.0
H     -4.563411899598229    1.771156953765091    0.0
3
0.18750000000000003 ps
C     -3.840767357039837    0.7754683806307059    0.0
H     -2.9026155039337684    0.9409875414678196    0.0
H     -4.545263238593202    1.73330217793732    0.0
3
0.19 ps
C     -3.8422207505963084    0.7793957242325904    0.0
H     -2.905448302513343    0.9320108220779646    0.0
H     -4.526082366532677    1.6943955574223777    0.0
3
0.1925 ps
C     -3.84407399040271    0.783289618856772    0.0
H     -2.904254241426315    0.923982752389909    0.0
H     -4.50617047142704    1.654913602468023    0.0
3
0.195 ps
C     -3.8462822020331053    0.7871000236292374    0.0
H     -2.899137333048703    0.9168645254131323    0.0
H     -4.485960069749468    1.6154923393921545    0.0
3
0.1975 ps
C     -3.8487725079158697    0.7907633307512331    0.0
H     -2.8903787166743515    0.9105945102730336    0.0
H     -4.466041316912511    1.576952801716201    0.0
3
0.2 ps
C     -3.8514448059995234    0.7942005206950178    0.0
H     -2.8784085264418735    0.905098284544123    0.0
H     -4.4471795417927575    1.5403130958367457    0.0
3
0.2025 ps
C     -3.8541753711923983    0.7973176752552961    0.0
H     -2.8637660824111166    0.9002980907756843    0.0
H     -4.43031192946895    1.5067729242702819    0.0
3
0.20500000000000002 ps
C     -3.8568239384295513    0.8000103466294026    0.0
H     -2.8470547987414156    0.8961202938694481    0.0
H     -4.416507999207711    1.47765410034833    0.0
3
0.20750000000000002 ps
C     -3.8592447847892672    0.8021728307312935    0.0
H     -2.8288989553746493    0.8925001981612839    0.0
H     -4.406880578490346    1.4542851644282218    0.0
3
0.21000000000000002 ps
C     -3.8613014691910394    0.8037119837925497    0.0
H     -2.8099075059162355    0.8893843041572459    0.0
H     -4.40244619849638    1.4378342954853611    0.0
3
0.21250000000000002 ps
C     -3.8628831648376414    0.804562970745268    0.0
H     -2.790647518750719    0.8867305404697324    0.0
H     -4.40395738146183    1.4291211091811968    0.0
3
0.21500000000000002 ps
C     -3.863918655320161    0.8047023018131756    0.0
H     -2.7716275547760927    0.8845071663918377    0.0
H     -4.411755909002971    1.4284619335162165    0.0
3
0.21750000000000003 ps
C     -3.8643835758184206    0.8041533515464929    0.0
H     -2.7532897263112024    0.8826909895034516    0.0
H     -4.425692857658643    1.4356020014748307    0.0
3
0.22000000000000003 ps
C     -3.864298415776633    0.8029821406917176    0.0
H     -2.736008395742455    0.8812653883640149    0.0
H     -4.445151700269569    1.4497669428574111    0.0
3
0.22250000000000003 ps
C     -3.8637184107807463    0.8012851579681378    0.0
H     -2.72009330159294    0.880218458944656    0.0
H     -4.469165837280501    1.4698144814121417    0.0
3
0.225 ps
C     -3.862719310133098    0.7991737454725015    0.0
H     -2.7057951375742633    0.8795414570046025    0.0
H     -4.49658253489515    1.494422684178693    0.0
3
0.2275 ps
C     -3.8613836146681977    0.7967598231952496    0.0
H     -2.69331206552792    0.8792275995144999    0.0
H     -4.526220329332642    1.522261480883622    0.0
3
0.23 ps
C     -3.859790308308079    0.7941457981639694    0.0
H     -2.682796137424735    0.879271201229632    0.0
H     -4.556985118961621    1.55211384166483    0.0
3
0.2325 ps
C     -3.8580089240479882    0.7914192149821172    0.0
H     -2.6743590297372606    0.8796669474460558    0.0
H     -4.587935294367436    1.582940050660509    0.0
3
0.23500000000000001 ps
C     -3.856097293822855    0.7886512263590618    0.0
H     -2.6680768066561886    0.8804096443472708    0.0
H     -4.618303920542595    1.6138961537118521    0.0
3
0.23750000000000002 ps
C     -3.8541017621137743    0.7858974886736375    0.0
H     -2.6639936253402943    0.8814942363897451    0.0
H     -4.64749259245967    1.6443232939765986    0.0
3
0.24000000000000002 ps
C     -3.8520587185634936    0.7832002531570794    0.0
H     -2.6621244035393032    0.882915832426457    0.0
H     -4.675050586529598    1.673722653031255    0.0
3
0.24250000000000002 ps
C     -3.849996635707837    0.7805908130000305    0.0
H     -2.662456621054404    0.8846698455543816    0.0
H     -4.700648940489452    1.701726044792609    0.0
3
0.24500000000000002 ps
C     -3.84793813543868    0.7780918343456957    0.0
H     -2.6649522634766347    0.8867522360863241    0.0
H     -4.724055055178704    1.7280678068045232    0.0
3
0.24750000000000003 ps
C     -3.8459018562995966    0.7757193592672816    0.0
H     -2.6695474079763235    0.8891598546375784    0.0
H     -4.745110449204342    1.752560517817591    0.0
