3
0.0 ps
C     -1.1102399999059018    0.8218999999968006    -1.5580940080673196e-11
H     -2.4468499737785816    0.80027000037165    -1.7383534819355074e-10
H     0.3730799726561722    0.8372999996665098    -0.02838999964032342
3
0.0025 ps
C     -1.1102280806324418    0.8218995989781595    -1.9596608174536316e-06
H     -2.443554296478599    0.8003167103550894    -2.1860710918679212e-05
H     0.3696410047397784    0.8372580580070204    -0.028344776916178444
3
0.005 ps
C     -1.1101914224231462    0.8218984165138146    -7.818806555932211e-06
H     -2.4337224032038227    0.8004560417131369    -8.716190336422864e-05
H     0.35936406291954576    0.837132727456102    -0.028209670635485143
3
0.007500000000000001 ps
C     -1.1101268201925716    0.8218965019610202    -1.7585872876545615e-05
H     -2.417400675285116    0.8006872808062838    -0.0001958249488543492
H     0.34225065661901877    0.8369240453367784    -0.027984727279952906
3
0.01 ps
C     -1.1100286448184966    0.8218939445790288    -3.12671096133692e-05
H     -2.394672148510031    0.8010091390830744    -0.0003477106874797318
H     0.3183100690099291    0.8366321485181747    -0.027670079483971814
3
0.0125 ps
C     -1.109888391052887    0.8218908849328075    -4.885313621598694e-05
H     -2.365669515246801    0.8014195383403377    -0.000542633875664158
H     0.28756699228800614    0.8362573525616022    -0.0272660921998286
3
0.015000000000000001 ps
C     -1.10969402064724    0.821887532580572    -7.02956787033202e-05
H     -2.3305955262914195    0.8019152712186475    -0.0007803940993215145
H     0.25007413298323744    0.835800280875507    -0.02677360905392697
3
0.0175 ps
C     -1.1094291001987544    0.821884191766786    -9.546883997134313e-05
H     -2.2897531115489342    0.8024914948133429    -0.0010608385645603337
H     0.20593210764750092    0.8352620655691665    -0.026194351153830918
3
0.02 ps
C     -1.1090717836326853    0.8218812971381211    -0.00012410555987204692
H     -2.2435882123939903    0.8031410008728799    -0.0013839836564637793
H     0.15532022703690226    0.8346446526138418    -0.025531552818261773
3
0.022500000000000003 ps
C     -1.108593813433788    0.821879461200295    -0.00015569425440971877
H     -2.19274859387052    0.8038531959111165    -0.0017502410814678813
H     0.09854352742575255    0.8339512576895709    -0.024790967329735725
3
0.025 ps
C     -1.1079599777603824    0.8218795334902053    -0.0001893122714124404
H     -2.138160981554572    0.8046127308733875    -0.002160823134029887
H     0.03610362634472212    0.8331870335818404    -0.02398244664011331
3
0.027500000000000004 ps
C     -1.1071289536460145    0.8218826666999348    -0.00022336169476013025
H     -2.081125167874145    0.8053977684611405    -0.0026184396720922596
H     -0.031196833818585658    0.8323600168997829    -0.023122393281835612
3
0.030000000000000002 ps
C     -1.1060572571844178    0.8218903758606741    -0.0002551616489032867
H     -2.02341470062815    0.8061780117121858    -0.0031284351007608035
H     -0.1021059889043827    0.8314823983579647    -0.022237482633633454
3
0.0325 ps
C     -1.1047089630644396    0.8219045619460518    -0.0002803491796361318
H     -1.9673565594650448    0.8069128979645642    -0.003700507222995126
H     -0.17472661886556282    0.8305720550833661    -0.021370084728898918
3
0.035 ps
C     -1.1030741281956689    0.8219274567826791    -0.0002920730166757035
H     -1.9158369725715474    0.8075508130976843    -0.004351010570961953
H     -0.2462899180958916    0.8296540018763675    -0.02058556947678412
3
0.037500000000000006 ps
C     -1.1011963523859842    0.8219614520325736    -0.0002800800187835482
H     -1.872157734652876    0.8080306728544198    -0.005105438306786721
H     -0.31296969484278503    0.8287608585289648    -0.019980713706500296
3
0.04 ps
C     -1.0992016889687266    0.8220088304811697    -0.0002300516358631764
H     -1.8396756124228308    0.8082873065237681    -0.005999939869395312
H     -0.36989743936752506    0.8279306781208224    -0.0196901024373101
3
0.0425 ps
C     -1.0973078074982636    0.8220715194487992    -0.00012392227141881025
H     -1.8212334287110594    0.8082610574128035    -0.007080000046106593
H     -0.4116215877862991    0.8272002788100661    -0.019883689678164704
3
0.045000000000000005 ps
C     -1.0957865344078523    0.8221510191051238    5.788005088870496e-05
H     -1.818532368371166    0.8079095357191833    -0.008394633439927874
H     -0.43318243993505795    0.826594178506301    -0.020746212248504592
3
0.0475 ps
C     -1.094876435104011    0.8222484676837957    0.00033195935284840154
H     -1.8317118029798336    0.8072174964019622    -0.009986519428459281
H     -0.4315827889372209    0.8261139376203943    -0.022433577795453154
3
0.05 ps
C     -1.0946910807518533    0.8223645482273311    0.0007067114715504077
H     -1.8593382419096016    0.8062003423908695    -0.011881553663299477
H     -0.4069091562577599    0.8257358881799272    -0.02502065782746138
3
0.052500000000000005 ps
C     -1.095187906187111    0.8224990939520217    0.0011793321131541815
H     -1.8987923141505327    0.80489961997407    -0.014082570806977229
H     -0.36230549364333786    0.8254203531989515    -0.02847181391068721
3
0.05500000000000001 ps
C     -1.0962137729625867    0.8226507246806717    0.0017370471061362253
H     -1.9468684477304063    0.8033731547872792    -0.01656983548641196
H     -0.3028179599010923    0.8251258539151206    -0.03265501036340496
3
0.0575 ps
C     -1.097581992445    0.8228169074579178    0.002361445158926409
H     -2.000333293419698    0.8016841956449499    -0.019307090395503858
H     -0.233916339321828    0.824819250832827    -0.03738739412732175
3
0.060000000000000005 ps
C     -1.0991301428447517    0.822994414974949    0.003033102518000799
H     -2.0562974941492373    0.7998929492930761    -0.02224969431260388
H     -0.16043277420496269    0.824478747177324    -0.042482296547192745
3
0.0625 ps
C     -1.1007427279211606    0.823179874582363    0.003734623750188173
H     -2.112383635944879    0.7980517203666968    -0.02535173875644592
H     -0.0861242402725157    0.8240922032507191    -0.04777838992733553
3
0.065 ps
C     -1.102349275289773    0.8233701710309855    0.004451879562739945
H     -2.1667456160355276    0.7962031930755704    -0.02857071440366784
H     -0.013676693763473928    0.8236540505915931    -0.05314980299900431
3
0.0675 ps
C     -1.103912856295534    0.8235626459515837    0.005174055335818929
H     -2.218007779129398    0.7943807398790693    -0.03186975674177162
H     0.05509637882515957    0.8231626016193917    -0.05850447565827673
3
0.07 ps
C     -1.1054181280209712    0.8237551421672034    0.005893158067223181
H     -2.265175216125368    0.7926097169252684    -0.035218164078702346
H     0.11902103039598798    0.8226182225290476    -0.06377777984784053
3
0.07250000000000001 ps
C     -1.1068621986150924    0.8239459615288841    0.006603387032226778
H     -2.3075444740946898    0.7909090469628325    -0.03859093867362551
H     0.17736416848537367    0.82202225018924    -0.06892548803472309
3
0.07500000000000001 ps
C     -1.108248597116489    0.8241337880700476    0.007300555426707864
H     -2.344627384480203    0.7892927169723055    -0.041967906138119536
H     0.22968514888046182    0.8213764083851567    -0.07391776759476276
3
0.0775 ps
C     -1.1095836254768412    0.8243176062285377    0.007981623193308038
H     -2.376091224139845    0.7877710383365883    -0.045332745775946565
H     0.275732214049589    0.8206825208715388    -0.07873458703364204
3
0.08 ps
C     -1.1108742800654532    0.8244966279180445    0.008644343305395678
H     -2.4017140382777886    0.7863516379679406    -0.04867209967452368
H     0.31537288321048496    0.8199423884179909    -0.08336239410148288
3
0.0825 ps
C     -1.112127116518549    0.8246702331362551    0.009287003549702275
H     -2.4213524774006854    0.7850402025223077    -0.05197482933717448
H     0.3485481561691974    0.8191577517323013    -0.08779178347847366
3
0.085 ps
C     -1.1133476387320065    0.8248379244837084    0.00990824259690032
H     -2.4349194135703556    0.7838410142800628    -0.055231438687839404
H     0.3752427805049071    0.8183302971330365    -0.09201588275200356
3
0.08750000000000001 ps
C     -1.1145399482180198    0.8249992944030856    0.01050692227541511
H     -2.4423690593468668    0.7827573155906797    -0.058433663248658174
H     0.39546614826913    0.8174616821847979    -0.09602924159509738
3
0.09000000000000001 ps
C     -1.1157064898650715    0.8251540038106456    0.01108204285068297
H     -2.443687938020438    0.7817915292637749    -0.06157422457023516
H     0.40924018380339616    0.8165535696801    -0.0998270679648175
3
0.09250000000000001 ps
C     -1.1168477876737668    0.8253017713700213    0.011632693114174213
H     -2.438892602195376    0.7809453495673679    -0.0646467597407283
H     0.4165918585582847    0.815607664179653    -0.10340470398724014
3
0.095 ps
C     -1.1179620933118402    0.8254423736347583    0.012158031885298595
H     -2.428031035882194    0.780219704044509    -0.06764595541355653
H     0.4175487966558601    0.8146257481315328    -0.10675727178268181
3
0.0975 ps
C     -1.1190448798392487    0.8255756576130991    0.01265730245515414
H     -2.4111833101731834    0.7796145696315484    -0.0705679454445442
H     0.4121348000024722    0.8136097154823639    -0.10987944858077284
3
0.1 ps
C     -1.1200881089344719    0.8257015690709261    0.013129887157607819
H     -2.3884696158057515    0.7791286060034412    -0.07341107463545335
H     0.4003683853039762    0.8125616002153586    -0.11276535456466016
3
0.10250000000000001 ps
C     -1.12107918981072    0.825820202224868    0.013575416479515478
H     -2.3600640001360507    0.7787585428468456    -0.07617719315475334
H     0.382267424157574    0.8114835955822292    -0.11540856107004227
3
0.10500000000000001 ps
C     -1.1219995351375123    0.8259318796512544    0.013993957016779354
H     -2.3262147585929744    0.7784982233561666    -0.07887373521420654
H     0.3578526333783915    0.8103780563015256    -0.11780225590120887
3
0.10750000000000001 ps
C     -1.1228226132500494    0.8260372754290856    0.014386316219275157
H     -2.2872732141361967    0.7783371624095943    -0.08151695938658826
H     0.3271531719372999    0.8092474697584668    -0.11993964156478262
3
0.11000000000000001 ps
C     -1.1235114174283094    0.826137599715929    0.01475452030894941
H     -2.243732799861718    0.7782584269781943    -0.08413688786202159
H     0.29021560959303727    0.8080943712522228    -0.12181470256858369
3
0.1125 ps
C     -1.1240153620188111    0.8262348683973525    0.015102544743903403
H     -2.196279911397335    0.7782356006004313    -0.08678465882633388
H     0.24711785828113614    0.8069211590162408    -0.1234235756772998
3
0.115 ps
C     -1.1242668443539647    0.8263322848032029    0.015437400249232009
H     -2.145856149971455    0.7782285876358722    -0.08954312703658175
H     0.19799054642475508    0.8057297307020639    -0.12476691877413293
3
0.11750000000000001 ps
C     -1.1241781976236511    0.8264347562499704    0.015770689649751007
H     -2.0937270821003313    0.7781781233711773    -0.0925414243351049
H     0.14304959651370092    0.8045208029926436    -0.12585394371153497
3
0.12000000000000001 ps
C     -1.1236406494526279    0.8265495460848373    0.016120724747354424
H     -2.041543953310965    0.7779992247600233    -0.09597343515064358
H     0.08264552804827839    0.8032926706173573    -0.12670922589084807
3
0.12250000000000001 ps
C     -1.1225281666402247    0.8266870078523754    0.016515183957954493
H     -1.9913712172696538    0.7775746435741487    -0.10011812273810505
H     0.01733716605518638    0.8020389789305978    -0.12738412842512511
3
0.125 ps
C     -1.1207105665121941    0.8268612544479573    0.016994057270065022
H     -1.945637393011924    0.7767508051528093    -0.10535573603821534
H     -0.0520006869387707    0.8007447817158864    -0.12797579094617836
3
0.1275 ps
C     -1.1180807058966893    0.8270905090965528    0.01761229491915016
H     -1.906960965203548    0.7753404408867234    -0.11216848798888368
H     -0.12402671271114188    0.7993796968457305    -0.12865813141449994
3
0.13 ps
C     -1.1145977858630318    0.8273968683643458    0.018441371265277652
H     -1.8778269599793955    0.773136875322912    -0.1211104819571203
H     -0.19673966426583972    0.7978864198142979    -0.1297306748550735
3
0.1325 ps
C     -1.1103407084145758    0.827805434250446    0.019569291596936256
H     -1.8601581013968314    0.7699424254130768    -0.13273629776922577
H     -0.2672705416395739    0.7961626540560997    -0.1316901556156443
3
0.135 ps
C     -1.1055526073443505    0.8283432344434704    0.021099415483479204
H     -1.854914549252865    0.7656062625126405    -0.1474964577580022
H     -0.33175155556483477    0.7940361117649998    -0.1353211198741798
3
0.1375 ps
C     -1.100646489274153    0.8290385231717464    0.023148441391725214
H     -1.8618980288119946    0.7600585994437127    -0.16563418069541602
H     -0.38544722418211724    0.7912386560153224    -0.14177522631763415
3
0.14 ps
C     -1.0961439336365888    0.829920060736293    0.02584068681707426
H     -1.8798579955906665    0.7533260829079107    -0.18712855635201647
H     -0.4233844750972781    0.7873994956239696    -0.1525599191002155
3
0.14250000000000002 ps
C     -1.0925457952039839    0.8310140673222199    0.029290909274170066
H     -1.906829644329104    0.7455221821596081    -0.21170787022381582
H     -0.44154992541274557    0.7820911343100952    -0.16932020284839713
3
0.14500000000000002 ps
C     -1.090183700564638    0.8323366661625583    0.033571013926386305
H     -1.9405576027855025    0.7368195932193058    -0.23891855959370897
H     -0.4382374926236436    0.7749471388426571    -0.19337243088969527
3
0.14750000000000002 ps
C     -1.0891354396530726    0.8338844150530511    0.038673831925914746
H     -1.978847678877483    0.7274182444816323    -0.2682128490360387
H     -0.41471791974518424    0.7658071648572333    -0.22518423872569385
3
0.15000000000000002 ps
C     -1.08925290587158    0.8356303850971188    0.04450152136069606
H     -2.0197784963738994    0.717519241241344    -0.2990241886173532
H     -0.3746893612225617    0.7547899262177652    -0.26416019366415794
3
0.15250000000000002 ps
C     -1.0902678123354905    0.8375299578318425    0.050890639406063795
H     -2.0617860499092786    0.7073081493332942    -0.3308184389892249
H     -0.3229237888056515    0.7422409031084976    -0.308889139146828
3
0.155 ps
C     -1.0918987610278061    0.8395321788514339    0.05765585343641698
H     -2.103665493233592    0.6969464578568644    -0.3631222639423607
H     -0.26398767483591506    0.7286055370013015    -0.3576368835267091
3
0.1575 ps
C     -1.093913556216099    0.8415896753467413    0.06462643781970132
H     -2.1445307984054773    0.6865687756910207    -0.3955346804775899
H     -0.20153911924779297    0.7143137494016157    -0.4087699507243772
3
0.16 ps
C     -1.0961468246812576    0.8436638241108215    0.07166448973920828
H     -2.183758990099211    0.6762835834465383    -0.427727583320377
H     -0.13817412218699343    0.6997175063829907    -0.4609724866760942
3
0.1625 ps
C     -1.098492636228057    0.8457258045701996    0.07866804982669263
H     -2.2209337300617933    0.6661759254415419    -0.4594398309193572
H     -0.07557166532621386    0.6850755054508045    -0.5132896210905089
3
0.165 ps
C     -1.100889173647519    0.8477554464747977    0.08556642711735891
H     -2.2557952483349304    0.656310926808673    -0.4904682327362239
H     -0.014727143365249823    0.6705633427936922    -0.5650809362957652
3
0.1675 ps
C     -1.103304144987058    0.8497393668604292    0.09231318999874445
H     -2.2881990686104894    0.6467374269868597    -0.5206576697676982
H     0.043831996842226384    0.6562920516055137    -0.6159469244353737
3
0.17 ps
C     -1.1057236985675    0.8516691659081063    0.09887954282894124
H     -2.318083556404975    0.6374913330659342    -0.5498916699516582
H     0.09988133857527912    0.64232623006009    -0.6656595453194842
3
0.17250000000000001 ps
C     -1.1081448706105097    0.8535399558890442    0.10524900564414894
H     -2.3454452171651474    0.6285985145446371    -0.5780840922679168
H     0.15338455052455677    0.6286986655455704    -0.7141071797326373
3
0.17500000000000002 ps
C     -1.1105707571542023    0.8553492561094169    0.11141346325190953
H     -2.3703203217236046    0.6200771964126711    -0.605172140709741
H     0.20441732394688636    0.6154211033480941    -0.7612545566021545
3
0.17750000000000002 ps
C     -1.1130075577882552    0.857096198310871    0.1173703521784645
H     -2.392771468668514    0.6119398806005769    -0.6311106835107865
H     0.25311861315468803    0.6024917900527115    -0.8071149251516486
3
0.18000000000000002 ps
C     -1.1154628285178436    0.8587809691186911    0.12312070452442539
H     -2.412877885754585    0.6041948581229213    -0.655867734813936
H     0.2996600631491636    0.5899006031578805    -0.8517312702539843
3
0.18250000000000002 ps
C     -1.1179444870417168    0.8604044243341116    0.12866780630934377
H     -2.430728506519976    0.5968473827390377    -0.6794209148762825
H     0.3442272036762439    0.5776324724918932    -0.8951638681149368
3
0.18500000000000003 ps
C     -1.1204602742902503    0.861967824451256    0.1340162852646773
H     -2.4464170779982717    0.5899005732731888    -0.7017547052393721
H     0.38700812703274445    0.5656696291227651    -0.9374821621011722
3
0.18750000000000003 ps
C     -1.1230174867106857    0.863472654466333    0.13917149472125082
H     -2.460038740022398    0.5833561028922278    -0.7228583347625611
H     0.42818687340082856    0.5539930633228533    -0.9787595345350751
3
0.19 ps
C     -1.1256228655712253    0.8649205018670563    0.14413910025033924
H     -2.471687662648488    0.5772147234712401    -0.7427241584021148
H     0.467939751153109    0.5425834544576641    -1.019070000830066
3
0.1925 ps
C     -1.1282825746235932    0.8663129746340582    0.14892480468046815
H     -2.481455439638615    0.5714766635562064    -0.7613464166646128
H     0.506433469458292    0.5314217506804135    -1.058486171250046
3
0.195 ps
C     -1.1310022252216732    0.8676516467088446    0.1535341673884369
H     -2.48943001902738    0.566141930113067    -0.7787202869056704
H     0.5438243752869824    0.5204895176651477    -1.0970780438376369
3
0.1975 ps
C     -1.133786924884744    0.8689380222900723    0.15797248772316827
H     -2.495695012866148    0.5612105374110596    -0.7948411571530732
H     0.5802583498435064    0.5097691359165475    -1.1349123388218207
3
0.2 ps
C     -1.1366413354818863    0.8701735130117048    0.1622447319601166
H     -2.5003292727159256    0.5566826809299025    -0.8097040689279377
H     0.6158710856964515    0.49924389959240484    -1.172052182638586
3
0.2025 ps
C     -1.1395697333087103    0.8713594239057451    0.16635548968777822
H     -2.5034066496767613    0.552558869906352    -0.8233032880475477
H     0.6507885709539233    0.4888980520254227    -1.2085570146524218
3
0.20500000000000002 ps
C     -1.142576066936958    0.8724969453232044    0.17030894996685572
H     -2.504995881015588    0.5488400288252634    -0.8356319721740159
H     0.6851276732610375    0.4787167813036297    -1.2444826327571452
3
0.20750000000000002 ps
C     -1.1456640108242522    0.8735871488631652    0.17410889064210675
H     -2.505160575246765    0.5455275756092168    -0.8466819114716603
H     0.7189967583989785    0.46868619138408707    -1.279881322637693
3
0.21000000000000002 ps
C     -1.1488370138682005    0.8746309859690576    0.17775867628554962
H     -2.503959776312669    0.5426234822662531    -0.8564433247277767
H     0.7524963047249466    0.4587932589526344    -1.3148020344788895
3
0.21250000000000002 ps
C     -1.1520983427199774    0.8756292882912622    0.1812612617505488
H     -2.5014481931823846    0.540130322027382    -0.8649046985614183
H     0.7857194909177596    0.44902578272937416    -1.3492905835148605
3
0.21500000000000002 ps
C     -1.1554511200267537    0.8765827691989048    0.1846191992850416
H     -2.497675576269841    0.538051305978079    -0.8720526604377498
H     0.8187527453464708    0.4393723295671848    -1.3833898592584144
3
0.21750000000000003 ps
C     -1.1588983579461298    0.8774920260106005    0.1878346477890601
H     -2.4926867694338766    0.5363903115392978    -0.8778718781292162
H     0.8516762525746606    0.4298221801136097    -1.4171400339116054
3
0.22000000000000003 ps
C     -1.1624429872596527    0.8783575426878304    0.1909093833788776
H     -2.4865218246688    0.5351519041282615    -0.8823449814614059
H     0.8845644159256308    0.4203652757594447    -1.4505787641390424
3
0.22250000000000003 ps
C     -1.1660878823412042    0.8791796928590616    0.19384481083098448
H     -2.47921612355202    0.534341352542671    -0.8854525046356617
H     0.9174862771896957    0.4109921679008947    -1.48374138282821
3
0.225 ps
C     -1.169835882119929    0.879958743139823    0.19664197579691245
H     -2.470800506104279    0.5339646379141536    -0.8871728496049855
H     0.9505058958214064    0.4016939700824346    -1.5166610790654984
3
0.2275 ps
C     -1.1736898070186417    0.8806948567995514    0.1993015779571708
H     -2.461301410236875    0.5340284357030404    -0.8874822786373591
H     0.9836826905995522    0.3924623132882742    -1.549369065590752
3
0.23 ps
C     -1.1776524716402719    0.881388097907055    0.20182398555190909
H     -2.450741027741232    0.5345398785146822    -0.8863554064966042
H     1.0170717470187796    0.3832893044649935    -1.5818947336461118
3
0.2325 ps
C     -1.1817266926661354    0.8820384361772172    0.2042092520172215
H     -2.4391374870273355    0.5355066106348005    -0.8837656394846942
H     1.0507240942527878    0.37416748824884355    -1.6142657955422344
3
0.23500000000000001 ps
C     -1.1859152911496382    0.8826457528599535    0.2064571357784994
H     -2.4265050756548523    0.5369369182035614    -0.8796845270491777
H     1.084686955028352    0.36508981177046146    -1.6465084154742788
3
0.23750000000000002 ps
C     -1.1902210880947877    0.8832098481232036    0.20856712465408012
H     -2.4128545178913923    0.5388396766500435    -0.8740818464161577
H     1.1190039704373707    0.3560495923846429    -1.678647329209874
3
0.24000000000000002 ps
C     -1.1946468916372022    0.8837304505475004    0.2105384668492056
H     -2.39819332965623    0.5412242668876167    -0.8669258630606619
H     1.1537154020271592    0.3470404881697904    -1.7107059533102196
3
0.24250000000000002 ps
C     -1.1991954734534187    0.8842072295683319    0.21237021120185373
H     -2.3825262813830244    0.5441004537651984    -0.8581837112699052
H     1.1888583134457416    0.33805647104264835    -1.7427064845216493
3
0.24500000000000002 ps
C     -1.2038695311457566    0.884639811985341    0.21406126023757271
H     -2.365856009524121    0.54747821358873    -0.8478219365834857
H     1.2244667336464479    0.3290918023482216    -1.7746699899125422
3
0.24750000000000003 ps
C     -1.2086716321972888    0.8850278040301531    0.21561044077158367
H     -2.3481838308782765    0.5513674930655345    -0.8358072560492336
H     1.2605718033908502    0.32014101080697355    -1.8066164882419313
