5
0.0 ps
C     -0.2661699976199404    0.6149100008577902    -0.4516900016435534
H     0.9229199899824216    0.4859800033430781    0.19651999520764515
H     -0.09884000163924933    -0.23167000012618658    -1.151470000885393
H     -0.9270799926206035    1.6660499927244214    -1.0657499959747523
H     -0.9463700241107924    0.5101799938273697    0.09112002125596363
5
0.0025 ps
C     -0.2658721017110362    0.6150176705965884    -0.4518956002193367
H     0.921660497628361    0.48640022165678    0.19591735332434537
H     -0.09904603695399225    -0.23168597284143833    -1.1515814022970563
H     -0.926152201315944    1.6651350724844585    -1.065244038959981
H     -0.949386394915281    0.5094060649330525    0.09377970492064974
5
0.005 ps
C     -0.2649981939151371    0.6153370947014207    -0.4524973712847816
H     0.9179013435096263    0.4876543404061257    0.19411740050987852
H     -0.09966022611001778    -0.2317349004445592    -1.151914865176573
H     -0.9233807203235668    1.6624022746850045    -1.0637341478307554
H     -0.9582146478516399    0.5071211586997926    0.10157615607329722
5
0.007500000000000001 ps
C     -0.2635940852616129    0.6158616801804869    -0.45345981147941294
H     0.9116569853607929    0.4897381800140067    0.19112332020568726
H     -0.10067805079728386    -0.2318201550666726    -1.1524718899983226
H     -0.9187674297020645    1.657855953147937    -1.061225735634348
H     -0.9723308659245198    0.5034049429591072    0.11408579249511613
5
0.01 ps
C     -0.2617279937591598    0.6165812950798212    -0.45473012951412795
H     0.9029535316259673    0.49264492886174216    0.18694162706968234
H     -0.10209201131553204    -0.23194670399566425    -1.1532544356312857
H     -0.9123159168280728    1.6515049964855162    -1.057727821889536
H     -0.9909564267095382    0.498379047523381    0.13067985571094282
5
0.0125 ps
C     -0.2594811918939759    0.6174832593421875    -0.45624567357341794
H     0.8918306160612395    0.4963649469096568    0.18158342582676382
H     -0.10389184643656638    -0.23212026239823355    -1.1542642962493093
H     -0.9040330121452425    1.6433643947290715    -1.0532535952521276
H     -1.0131695565200527    0.4921930505086619    0.15061177317578173
5
0.015000000000000001 ps
C     -0.2569389277079251    0.6185533142251295    -0.457941241343388
H     0.8783441529855537    0.5008854857029447    0.17506624210462993
H     -0.10606480181437708    -0.2323462947818872    -1.1555023637100779
H     -0.8939308441381741    1.6334574791667136    -1.0478213067892725
H     -1.0380139928365193    0.4850099733595032    0.17310271852854242
5
0.0175 ps
C     -0.2541833589086544    0.6197763592044778    -0.4597549148228129
H     0.8625700885989509    0.5061903264878769    0.16741649256245944
H     -0.10859591744352448    -0.2326289910165312    -1.1569678687319365
H     -0.8820293729641246    1.6218189070881102    -1.0414555838674244
H     -1.064584184793718    0.4769938554975556    0.19740929648461858
5
0.02 ps
C     -0.2512891704189452    0.6211368435819692    -0.46163187910254494
H     0.8446092764398877    0.5122593456067323    0.15867267691964915
H     -0.11146830846070059    -0.23297032107236645    -1.158657680446072
H     -0.8683593968213377    1.6084985002709882    -1.034189265286126
H     -1.0920791790572157    0.46830074193399895    0.2228670117043327
5
0.022500000000000003 ps
C     -0.24832168982415195    0.6226187913971816    -0.46352634693325406
H     0.824593597962606    0.5190680285875162    0.14888938167231752
H     -0.11466342099831649    -0.23336924178901736    -1.16056572245208
H     -0.852966059461314    1.5935660801085108    -1.0260658645364558
H     -1.119827497552361    0.4590732504789553    0.24891106336888966
5
0.025 ps
C     -0.2453368816828731    0.6242054945568679    -0.4654020516814786
H     0.8026934074140204    0.5265869732324218    0.13814217422316052
H     -0.11816125354266933    -0.2338210990062897    -1.1626825414521265
H     -0.8359129057043978    1.5771174628620837    -1.0171427690144583
H     -1.1472904177755299    0.44943814395808934    0.2750800597923807
5
0.027500000000000004 ps
C     -0.2423825235880053    0.6258789290970507    -0.4672318339610153
H     0.779126279902923    0.5347814499041357    0.1265334207568539
H     -0.12194054245009824    -0.23431724429194575    -1.1649950458992808
H     -0.817286520002012    1.5592817709887656    -1.0074952726712745
H     -1.1740519053434884    0.43950604945679905    0.3010090082433324
5
0.030000000000000002 ps
C     -0.23949997924910857    0.6276189469787261    -0.4689967534926924
H     0.7541668491821265    0.5436111261908914    0.11419895839410005
H     -0.1259789167910969    -0.23484486836186347    -1.1674864181560098
H     -0.7972017255689146    1.540230158674681    -0.9972215052390949
H     -1.1998019707671617    0.4293724978636382    0.32641686850651086
5
0.0325 ps
C     -0.2367261471756496    0.6294022875938782    -0.47068501263923745
H     0.7281571955890548    0.5530301132717337    0.1013153620355406
H     -0.13025303204030084    -0.23538704218550316    -1.170136194121153
H     -0.7758071991946943    1.5201859083366822    -0.986448242171675
H     -1.2243180698654965    0.4191196347651817    0.35109232707657984
5
0.035 ps
C     -0.23409530071363174    0.6312014533402159    -0.4722908408130266
H     0.7015167438981113    0.5629875475593257    0.08810723610605233
H     -0.13473869424055868    -0.23592295031180077    -1.1729204982698043
H     -0.7532911462686476    1.4994355835864985    -0.9753374264870335
H     -1.2474472413548972    0.40881815967167867    0.3748799612964316
5
0.037500000000000006 ps
C     -0.23164062085027085    0.6329835129959016    -0.47381338189961064
H     0.6747499374101098    0.5734289685524772    0.07485350803901648
H     -0.13941098626289858    -0.23642829797869178    -1.175812418669863
H     -0.729886359835653    1.4783404669434221    -0.964092970796334
H     -1.2690902827329067    0.3985292257925416    0.39766787158116695
5
0.04 ps
C     -0.22939526282136158    0.6347089433534616    -0.4752555541416386
H     0.6484491155569745    0.5842987613767486    0.06189111716245835
H     -0.14424440584924555    -0.23687587328583998    -1.1787825050880243
H     -0.7058735514420649    1.4573468173668382    -0.9529670010766552
H     -1.2891883939616062    0.38830615980695776    0.4193771664603159
5
0.0425 ps
C     -0.22739281300122197    0.6363306979959077    -0.4766228145904972
H     0.6232892134982313    0.5955438498872612    0.049613873635260194
H     -0.14921302151062568    -0.23723624750748187    -1.181799373255464
H     -0.6815813321837481    1.4369925476355785    -0.9422641439683448
H     -1.307712240715752    0.3781959439395683    0.4399532974713732
5
0.045000000000000005 ps
C     -0.22566701475480352    0.6377937973946673    -0.47792176386908264
H     0.6000104926950659    0.6071185907021183    0.038463834032703585
H     -0.1542906474638064    -0.23747859980125405    -1.184830399302663
H     -0.6573807748147168    1.4179068534697747    -0.9323418048945834
H     -1.324653169839601    0.36824045191687016    0.45935905682696443
5
0.0475 ps
C     -0.2242507043304215    0.6390358426164865    -0.47915858126431793
H     0.5793860688819347    0.6189903850621119    0.028912686381663572
H     -0.15945103332914748    -0.2375716560393196    -1.1878424898449644
H     -0.6336723751281951    1.4007984452483595    -0.9236038224770327
H     -1.3400162437008458    0.35847745691220895    0.4775689892500722
5
0.05 ps
C     -0.22317402342868017    0.639988911299036    -0.48033738843230084
H     0.5621731391015043    0.6311449277716068    0.021431821076832787
H     -0.16466805940022147    -0.23748476081497105    -1.190802914584097
H     -0.6108638593608227    1.3864279462235467    -0.91648478366241
H     -1.353814776115878    0.3489414417842766    0.49456497514430975
5
0.052500000000000005 ps
C     -0.22246215527892257    0.6405832133705581    -0.48145878041922563
H     0.5490507789335419    0.6435894369987392    0.016452276487347504
H     -0.1699159253995249    -0.23718912375727091    -1.1936801884261898
H     -0.5893390541420105    1.3755615579362863    -0.9114231606126448
H     -1.3660661056101708    0.33966424541062756    0.510332780291045
5
0.05500000000000001 ps
C     -0.22213300902188218    0.6407525774583593    -0.48251887247770614
H     0.54055233604843    0.6563520116025259    0.014319306119799969
H     -0.1751693210673916    -0.23665896320837318    -1.1964449879377155
H     -0.569421001580375    1.368906940115765    -0.9088237282738019
H     -1.376788403785402    0.3306755772209076    0.5248594152439131
5
0.0575 ps
C     -0.2221953617747417    0.6404412792382833    -0.48350919852194035
H     0.5370049349382998    0.6694758322816806    0.015249495525569598
H     -0.18040357109146693    -0.23587273061854847    -1.1990710822104986
H     -0.5513359362917712    1.3670382334083055    -0.9090134465704411
H     -1.3859983688383783    0.32200342744770843    0.5381311902390695
5
0.060000000000000005 ps
C     -0.22264789679015218    0.6396110781371492    -0.4844176002227247
H     0.5384894929675198    0.6830083700309889    0.019298986683306544
H     -0.18559475392691807    -0.23481435499783615    -1.2015362487971974
H     -0.53518699366627    1.3703222931223353    -0.9122000884657192
H     -1.3937096843758103    0.3136743953952222    0.5501323781285923
5
0.0625 ps
C     -0.22347928942846848    0.6382469173919987    -0.4852299089449698
H     0.5448296889815143    0.6969876407344825    0.026354961580921293
H     -0.19071980048819023    -0.23347439964890698    -1.2038231334031686
H     -0.5209457136181367    1.3788633028347306    -0.918440840201557
H     -1.3999321285185817    0.30571395413350505    0.5608444037772078
5
0.065 ps
C     -0.22466927172238943    0.6363597163491423    -0.4859319142569315
H     0.5556191124179972    0.7114289182887907    0.036150255165409144
H     -0.19575658191840145    -0.23185103629343978    -1.2059199978253528
H     -0.5084648545601429    1.3924863385472175    -0.9276301141414415
H     -1.4046712113675066    0.2981466650927729    0.5702454707512677
5
0.0675 ps
C     -0.22619041238574034    0.6339854732963682    -0.4865110213224258
H     0.5702750138185108    0.7263153543472376    0.04829667357574794
H     -0.20068399672563736    -0.22995073791624107    -1.2078212968176847
H     -0.4975093263955964    1.410758683713878    -0.9395122906924014
H     -1.4079281999625404    0.2909963541795236    0.5783105203008405
5
0.07 ps
C     -0.22801026632194207    0.6311809665616788    -0.4869571834818393
H     0.5881047644971248    0.7415945861188147    0.06232942849035799
H     -0.2054820620035519    -0.22778861603797207    -1.2095280324453426
H     -0.48779660573254835    1.4330448325484804    -0.9537147391948426
H     -1.4097003842713332    0.28428626105777893    0.5850114092203952
5
0.07250000000000001 ps
C     -0.23009359851506217    0.6280172591474138    -0.4872630317675126
H     0.6083725526761791    0.7571813963460556    0.07775293928307771
H     -0.21013200625540157    -0.22538836450901287    -1.2110478500739392
H     -0.4790364067761151    1.4585812278077745    -0.969792201215777
H     -1.4099814642267712    0.2780391712525541    0.5903172024353965
5
0.07500000000000001 ps
C     -0.23240445121151446    0.6245725860095946    -0.4874234073397909
H     0.6303556551779143    0.7729648195749617    0.09408016253399325
H     -0.21461635658658962    -0.2227818113187075    -1.2123948607193566
H     -0.4709617960942953    1.4865534900283832    -0.9872721754932685
H     -1.4087624739925233    0.2722775375937611    0.5941945004587235
5
0.0775 ps
C     -0.23490788721102265    0.62092598290388    -0.48743461841356817
H     0.6533848297472716    0.7888173663539688    0.1108611941882525
H     -0.21891901157664856    -0.22000811235934742    -1.21358919369727
H     -0.4633483489892391    1.5161622901553222    -1.0056931585296685
H     -1.406032496017714    0.2670235934825879    0.5966077544079795
5
0.08 ps
C     -0.2375713088739574    0.6171524536600996    -0.4872937061612349
H     0.6768682104384133    0.8046042379556327    0.12770038729460484
H     -0.22302529280251193    -0.21711264092913002    -1.2146562972719495
H     -0.4560219465173568    1.5466705509354954    -1.0246316045287276
H     -1.401778202364892    0.26229945688979306    0.5975195514810765
5
0.0825 ps
C     -0.24036532276425304    0.6133198867719404    -0.4869978747061657
H     0.7003012355245594    0.8201911183537632    0.14426358892342328
H     -0.2269219713781146    -0.21414563457778313    -1.2156260129537215
H     -0.4488580896421461    1.5774309512348632    -1.04371721791325
H     -1.3959840681662228    0.25812722128168075    0.5968906861317467
5
0.085 ps
C     -0.24326418245495973    0.6094875224702578    -0.4865441354446291
H     0.7232664382364685    0.8354499183557509    0.16027813488301573
H     -0.2305972692373317    -0.2111606610673262    -1.2165314536623602
H     -0.4417761412985025    1.6078968089618315    -1.0626385610338742
H     -1.3886326611903834    0.2545290269698647    0.5946795853813631
5
0.08750000000000001 ps
C     -0.24624588393814364    0.6057055823360402    -0.4859291623101088
H     0.7454268964715    0.8502624464320515    0.17552828426805034
H     -0.23404083765125497    -0.2082129625733519    -1.217407719539277
H     -0.43473136092006315    1.6376210719644868    -1.0811418522154963
H     -1.379704965902702    0.25152710403978423    0.5908432601873779
5
0.09000000000000001 ps
C     -0.2492920044992145    0.6020156525835074    -0.48514930687743063
H     0.7665164189350764    0.8645223211158742    0.18984829353440832
H     -0.23724371777451803    -0.20535773512146493    -1.218290489131244
H     -0.4277066702670443    1.6662480542334954    -1.099025702931709
H     -1.3691807901531485    0.24914377453613284    0.5853380167148696
5
0.09250000000000001 ps
C     -0.25238737150948876    0.5984514814999002    -0.484200724824902
H     0.7863286378081749    0.8781355644782015    0.20311469125457926
H     -0.24019828906124202    -0.20264840026230407    -1.2192145297960735
H     -0.4207052258250927    1.6935016041945234    -1.1161339385692348
H     -1.3570393109197085    0.24740139781587647    0.5781199738844508
5
0.095 ps
C     -0.2555196307583709    0.5950399493728953    -0.48307957574532584
H     0.8047063609013018    0.8910203057393504    0.21523873045286623
H     -0.24289821160883956    -0.20013492764181906    -1.220212178675965
H     -0.41374424582815483    1.7191722401002698    -1.13234795068732
H     -1.3432598266818947    0.24632223792346447    0.5691457887390066
5
0.0975 ps
C     -0.25867876251143945    0.5918020604019109    -0.4817822715498068
H     0.8215319152941712    0.903105949866808    0.2261595478548864
H     -0.24533836824183097    -0.19786226890860048    -1.2213118528457538
H     -0.4068501580576934    1.7431047822823862    -1.1475794357563556
H     -1.3278228012369    0.24592822443979848    0.5583736787452932
5
0.1 ps
C     -0.2618565726228379    0.5887538767125559    -0.4803057610164832
H     0.8367187946206732    0.9143320749221414    0.23583825563847197
H     -0.24751481141516432    -0.19586896357969988    -1.2225366527610952
H     -0.4000549398235546    1.7651872704960638    -1.1617639462987295
H     -1.3107113084402602    0.24624047050202988    0.5457648564553207
5
0.10250000000000001 ps
C     -0.26504616808438164    0.5859073632001486    -0.4786478484718848
H     0.8502046658204413    0.9246472385522041    0.2442530054878268
H     -0.24942471876703995    -0.19418597449438574    -1.2239031253936195
H     -0.3933934465903657    1.7853414686702271    -1.1748554042860542
H     -1.291913021376888    0.2472783126632904    0.5312855282321752
5
0.10500000000000001 ps
C     -0.2682414117494262    0.5832711424346683    -0.47680755368467703
H     0.8619456515866616    0.9340078078066082    0.25139496343599144
H     -0.25106635949981954    -0.19283580325939872    -1.2254202510763537
H     -0.38690151714649534    1.8035149730957651    -1.1868215674406137
H     -1.2714229347802324    0.24905877614469213    0.5149096569701654
5
0.10750000000000001 ps
C     -0.27143633901782205    0.5808511765387875    -0.4747855287111508
H     0.8719117412520155    0.9423768785044494    0.2572650875676579
H     -0.2524390721403808    -0.19183192422062226    -1.2270887098929695
H     -0.3806146655769596    1.8196747917650704    -1.1976403593434801
H     -1.249247067774651    0.25159549668123765    0.49662275066528194
5
0.11000000000000001 ps
C     -0.2746245090851141    0.5786514023119899    -0.4725845564289484
H     0.8800831648110377    0.9497233180473141    0.26187158708417624
H     -0.2535432521222933    -0.1911785598163564    -1.2289004706712219
H     -0.37456720364241297    1.8338022001107694    -1.2072969428116138
H     -1.225407466056257    0.2548970068668387    0.47642701560753264
5
0.1125 ps
C     -0.27779825433753885    0.5766743504531909    -0.47021016502706947
H     0.8864475717626588    0.9560209452553401    0.2652279455401652
H     -0.25438034544369675    -0.19087080193123326    -1.2308387289570955
H     -0.36879167087753917    1.8458886654516795    -1.2157814119141241
H     -1.1999489054876193    0.2589643564223797    0.45434830187950426
5
0.115 ps
C     -0.28094778375923607    0.5749217818153517    -0.4676714021101879
H     0.8909978757445478    0.9612478491007833    0.2673514038767885
H     -0.2549528427301059    -0.19089507517438417    -1.2328782012152304
H     -0.36331847918542376    1.855932645446157    -1.223086987861317
H     -1.1729477825895587    0.26378785204026145    0.43044535912254606
5
0.11750000000000001 ps
C     -0.284060091358312    0.5733953741593112    -0.4649818192060663
H     0.8937306500850511    0.9653858424138169    0.26826181476573047
H     -0.25526426647933426    -0.19123004291355367    -1.2349857629333127
H     -0.3581757026445339    1.8639370902933845    -1.2292086196606866
H     -1.144523736836984    0.26934265966285315    0.4048219861893848
5
0.12000000000000001 ps
C     -0.28711762259316304    0.5720974913485113    -0.462160717739445
H     0.8946449845347441    0.9684200447648375    0.2679807168337019
H     -0.2553191442092141    -0.19184756313413207    -1.2371214000429147
H     -0.3533889618682079    1.869907506254108    -1.2341419074792563
H     -1.1148545333313657    0.2755829889458906    0.37764264467453473
5
0.12250000000000001 ps
C     -0.29009666850064264    0.5710320611622942    -0.45923469199638955
H     0.8937414386547865    0.970338589387505    0.2665301007557993
H     -0.2551230401957808    -0.192713743849253    -1.239239431004602
H     -0.3489813664800505    1.873850465799211    -1.237882282987872
H     -1.0841945452379909    0.2824346120593258    0.3491519103147989
5
0.125 ps
C     -0.2929655023243288    0.5702055723739738    -0.4562394589180334
H     0.8910207445456925    0.9711324511469238    0.26393235210569377
H     -0.25468253284218684    -0.19379026805794755    -1.2412899486682771
H     -0.34497349002165284    1.8757724754478908    -1.2404243958633312
H     -1.0528966501245285    0.2897856224392502    0.3196975840457751
5
0.1275 ps
C     -0.2956823671812277    0.5696281674493197    -0.45322186713529944
H     0.8864846510914373    0.9707953013488508    0.26021039094721093
H     -0.2540049535893    -0.195035797551554    -1.243220424858332
H     -0.3413833593124605    1.8756790807761623    -1.2417616686485482
H     -1.021436251915415    0.29747571907820036    0.28975611773774934
5
0.13 ps
C     -0.29819358949200564    0.5693147422575336    -0.4502418031244996
H     0.8801365097754932    0.9693229736124369    0.2553875863814437
H     -0.25309820116059084    -0.19640739387642062    -1.2449774200123724
H     -0.3382264466438437    1.8735733134402281    -1.241886006727723
H     -0.9904341725148974    0.30528505201868483    0.25995692354850686
5
0.1325 ps
C     -0.3004323461121732    0.5692858570672218    -0.447373445928729
H     0.8719819270239326    0.9667140773919009    0.24948781584879665
H     -0.2519705231318427    -0.19786190475669582    -1.2465083405177986
H     -0.3355156582022373    1.8694554455041887    -1.2407881124058504
H     -0.9606721564999855    0.3129249144918345    0.2310989508234213
5
0.135 ps
C     -0.3023189256417618    0.5695681070555841    -0.44470499377946426
H     0.8620298437847703    0.9629707065288907    0.24253569185156218
H     -0.2506302511011112    -0.19935726836400597    -1.2477631841705028
H     -0.33326131667430925    1.8633237215135814    -1.238457595754083
H     -0.9330910289897884    0.32003428576236853    0.20414898874530954
5
0.1375 ps
C     -0.3037635741288931    0.5701934800085281    -0.4423357279474529
H     0.8502941329401487    0.9580990231931106    0.2345570029322332
H     -0.2490854973113482    -0.20085368936249914    -1.2486962082990851
H     -0.331471138972265    1.8551745174010539    -1.2348824683551605
H     -0.9087585974948155    0.3261879400589328    0.1802080538874026
5
0.14 ps
C     -0.3046729442566735    0.5711971808769652    -0.44036936785780656
H     0.8367958410535914    0.9521100654290168    0.2255794516436118
H     -0.2473438286835161    -0.20231463993592064    -1.2492674445521998
H     -0.33015021092476576    1.8450027944430323    -1.2300493852667858
H     -0.8887952707136841    0.33092230101726433    0.16043324664558536
5
0.14250000000000002 ps
C     -0.3049604418935281    0.5726135883261518    -0.4389034596824924
H     0.8215662371790582    0.9450208185145823    0.2156338151924451
H     -0.24541194307642805    -0.20370763846347903    -1.249443972607
H     -0.329300959436489    1.8328029749645145    -1.2239441785170573
H     -0.8742540504129471    0.33378252000111197    0.14591182566044195
5
0.14500000000000002 ps
C     -0.3045592623312746    0.5744706520221072    -0.43801615910997427
H     0.804650861341645    0.9368555861179726    0.20475569772026128
H     -0.24329538037734424    -0.20500476408477605    -1.2492009482152011
H     -0.328923119990378    1.818570365737229    -1.2165527260083187
H     -0.8659696262576158    0.3343869992450518    0.13750353596362003
5
0.14750000000000002 ps
C     -0.30343507930526725    0.5767838915956482    -0.437753683380339
H     0.7861147775412459    0.9276476831310858    0.19298807401163437
H     -0.24099830483124876    -0.20618288508531002    -1.248522337090196
H     -0.329013722819741    1.802303278343664    -1.207862265509164
H     -0.8644130436777909    0.3324945581681328    0.1356900702357163
5
0.15000000000000002 ps
C     -0.3015943245638757    0.5795517826225479    -0.43812265529423644
H     0.7660492171294344    0.9174414420092167    0.1803848276235876
H     -0.23852339113352292    -0.20722361779788004    -1.2474007999159709
H     -0.32956729546751656    1.7840060127011093    -1.1978632784606145
H     -0.8696017891779632    0.3280535925007817    0.1404798657128501
5
0.15250000000000002 ps
C     -0.2990851788110792    0.582754107025139    -0.4390903575613748
H     0.7445797329543011    0.9062944744473627    0.16701545065104603
H     -0.23587183395646882    -0.20811308234971687    -1.2458373414818895
H     -0.3305757264623281    1.7636928935607579    -1.186552083109369
H     -0.8810978694843199    0.3212165649887915    0.15140634593492414
5
0.155 ps
C     -0.295991119934666    0.5863537006132555    -0.4405928121933269
H     0.721875875256574    0.8942800636438004    0.15297099340437076
H     -0.23304348448557546    -0.20884155415450392    -1.243840721636448
H     -0.33202815572648137    1.741393588094945    -1.1739342935678216
H     -0.8980903836152302    0.31231138924574775    0.1676253774998287
5
0.1575 ps
C     -0.29241978370785177    0.590300618045328    -0.44254769634729463
H     0.6981622213494417    0.8814894753598873    0.1383712220404417
H     -0.230037100316793    -0.2094031136260691    -1.2414266975475172
H     -0.3339111958722877    1.7171599830193411    -1.1600293233445018
H     -0.9195383178170033    0.30178231002698663    0.1880666827041685
5
0.16 ps
C     -0.28849109042152166    0.594536957106137    -0.44486781679001786
H     0.6737302670079515    0.8680338512834559    0.12337273803424777
H     -0.2268506782288235    -0.20979537540665688    -1.2386172222458351
H     -0.33620946318792655    1.6910749629816588    -1.1448761516115975
H     -0.9443230771798143    0.29012148565342405    0.2115915074800894
5
0.1625 ps
C     -0.2843277321625493    0.5990007754395323    -0.44747179802520703
H     0.6489501786615486    0.854045191516058    0.1081774972811481
H     -0.22348183149948697    -0.21001934190904167    -1.2354396966545824
H     -0.3389065908715393    1.6632634703639286    -1.1285406008446623
H     -0.9713722640527855    0.2778101202838595    0.23711814997094888
5
0.165 ps
C     -0.2800492471827134    0.6036283138261231    -0.4502905370654147
H     0.6242806628127363    0.8396757611617138    0.0930406945137485
H     -0.2199281747384977    -0.21007939097740347    -1.2319263326638665
H     -0.34198693895143545    1.6339061930969672    -1.1111243611170223
H     -0.9997381337150666    0.26527885696917153    0.263699441092449
5
0.1675 ps
C     -0.2757692514043956    0.6083545259847941    -0.45326955855050366
H     0.6002742510869575    0.8250951235174105    0.07827633820602076
H     -0.21618768634073965    -0.20998341907079665    -1.228113647393465
H     -0.3454382535651045    1.6032560524535862    -1.0927758883049026
H     -1.0286329088977386    0.25288805371890416    0.29055562002658236
5
0.17 ps
C     -0.27159451588063455    0.6131123830509714    -0.4563681514925171
H     0.5775742982514714    0.8104840182197077    0.06425811004794844
H     -0.21225902783065587    -0.2097430970693464    -1.2240420788958024
H     -0.3492555494912835    1.5716572421107238    -1.073703025885614
H     -1.0574326202057267    0.2409233689845606    0.3170753822101413
5
0.17250000000000001 ps
C     -0.2676244132634395    0.6178315682461726    -0.459556247397432
H     0.556899358880526    0.7960246226697422    0.051412520857639324
H     -0.20814180775728086    -0.20937402644558945    -1.219755691702504
H     -0.3534464550211947    1.5395657579854383    -1.054186652749993
H     -1.0856625206671229    0.22960080421046805    0.3427988175692895
5
0.17500000000000002 ps
C     -0.26394953828509915    0.6224371459312225    -0.46280981353224754
H     0.5390110269044055    0.7818875038449645    0.040201387622232354
H     -0.20383678432938637    -0.2088959695145254    -1.215301925454854
H     -0.35803809685767535    1.507568993183021    -1.0345937331333432
H     -1.1129743418498288    0.21907630958676447    0.36739277550851807
5
0.17750000000000002 ps
C     -0.260648841363938    0.6268487180048926    -0.46610541737310546
H     0.5246635742938619    0.7682167862934783    0.031091844885025866
H     -0.1993460059850432    -0.20833304559995658    -1.2107313290407924
H     -0.3630852127097482    1.476399960798445    -1.0153867813155193
H     -1.1391219315165935    0.20945668871690726    0.39062521913232373
5
0.18000000000000002 ps
C     -0.25778530977772374    0.6309805530051062    -0.4694147240112776
H     0.5145382070162703    0.7551164162122429    0.024514882311232604
H     -0.19467289314125683    -0.20771381232321834    -1.2060972190353785
H     -0.3686784539229541    1.4469392221515822    -0.997125082533074
H     -1.1639387244531394    0.20080998768637873    0.4123419340113027
5
0.18250000000000002 ps
C     -0.25540099595074434    0.6347432065473936    -0.4726999786387845
H     0.5091707530466003    0.7426412020550647    0.02081749526981873
H     -0.18982226776095307    -0.20707116900896805    -1.2014552085674237
H     -0.37495075367684055    1.4201953933119074    -0.9804515656431619
H     -1.1873184497146825    0.19317455817535878    0.4324468835030807
5
0.18500000000000003 ps
C     -0.2535128320668495    0.6380471733228253    -0.4759117740866417
H     0.5088867789026511    0.7307957679518285    0.02021754634144583
H     -0.18480033987405362    -0.20644203148657528    -1.1968625733963225
H     -0.38207840905772417    1.3972548100029893    -0.9660591311909128
H     -1.2091993228636113    0.18656657248159494    0.4508863603318202
5
0.18750000000000003 ps
C     -0.2521108926910382    0.6408089365347435    -0.4789902648569087
H     0.5137575644182154    0.7195423991692307    0.022771132804618795
H     -0.1796146613716544    -0.20586675209055033    -1.1923774532707836
H     -0.390272819110843    1.3791948955390103    -0.9546330815693759
H     -1.229551424960712    0.18098606168758133    0.46763655824853223
5
0.19 ps
C     -0.25116033775562374    0.6429591863328615    -0.48187020538903536
H     0.5235920976228692    0.708815765265765    0.028362587616462674
H     -0.1742740573879609    -0.20538828820166846    -1.1880579185664788
H     -0.39975972436378504    1.3669657716832948    -0.9467731872218479
H     -1.2483667797011284    0.1764216641274562    0.4826940134683397
5
0.1925 ps
C     -0.25060719612969473    0.6444519392037485    -0.48448885045103446
H     0.537967842047663    0.698540202613482    0.0367216679342293
H     -0.16878854589026093    -0.20505114647472455    -1.183960952201218
H     -0.41074623064964033    1.3612593608201184    -0.942908767804496
H     -1.2656516320424476    0.1728542950668805    0.4960683658976155
5
0.195 ps
C     -0.250386834657219    0.6452722291673049    -0.4867944580387429
H     0.5562865916900916    0.6886449010842839    0.04745921223449703
H     -0.1631692572398108    -0.20490013766024726    -1.180141393856973
H     -0.4233814208157978    1.362397919557204    -0.9432285970223779
H     -1.2814205031754073    0.17025993181865032    0.507776962881097
5
0.1975 ps
C     -0.25043303111135845    0.6454397470621521    -0.4887526984147313
H     0.5778431525214263    0.6790739627890321    0.06011297134575337
H     -0.1574283675812668    -0.20497899487410473    -1.176650872061218
H     -0.4377212996491198    1.3702733471445303    -0.9476495365412865
H     -1.295691686692408    0.16861168062106477    0.5178409186662022
5
0.2 ps
C     -0.250685494728071    0.6450068056589274    -0.49034908832159585
H     0.6018923423106478    0.6697906699370564    0.07419341573766514
H     -0.15157906121773154    -0.20532898466669636    -1.173536727196594
H     -0.4537094760044269    1.3843654329081037    -0.9558311305465693
H     -1.3084839273706184    0.16788126640025786    0.5262823225979397
5
0.2025 ps
C     -0.2510944381251232    0.6440510231523862    -0.49158723473683336
H     0.6277039397822254    0.6607771296136546    0.08922183381510704
H     -0.14563553791081296    -0.20598720974097456    -1.1708409198680758
H     -0.47117976231304787    1.4038293258014145    -0.9672320116984912
H     -1.3198140756338501    0.16804001944579397    0.5331223515891189
5
0.20500000000000002 ps
C     -0.2516220329573377    0.642664947063905    -0.4924841934068699
H     0.6546010332994356    0.6520311936977584    0.10475710809133981
H     -0.139613076577868    -0.20698486708991304    -1.168598936007563
H     -0.48987852970391393    1.4276205573372027    -0.981191836272129
H     -1.3296955357223854    0.1690591018158178    0.5383800827253001
5
0.20750000000000002 ps
C     -0.252241515912761    0.6409453783356863    -0.493064861598373
H     0.6819820426167762    0.6435623760327138    0.12041109284098928
H     -0.1335281563119451    -0.20834561393967607    -1.1668387318317979
H     -0.5094982007578036    1.4546245355228111    -0.9970139248105853
H     -1.3381373363286377    0.1709101381973307    0.5420718283689521
5
0.21000000000000002 ps
C     -0.2529350557734458    0.6389846460455726    -0.4933569985345582
H     0.7093294599107445    0.6353879045422501    0.13585462728992792
H     -0.1273986241406062    -0.2100841011242272    -1.1655797890581197
H     -0.529711752974644    1.4837628797488192    -1.0140313532120755
H     -1.3451436650874176    0.17356576142192534    0.5442108429242756
5
0.21250000000000002 ps
C     -0.2536913404504373    0.6368648594107139    -0.4933876860717937
H     0.736209246526677    0.6275294595618283    0.1508169461956886
H     -0.12124388835500567    -0.21220479783895113    -1.1648323630496826
H     -0.5502008811590733    1.5140639306050439    -1.0316493504775222
H     -1.3507137305303976    0.1769997193629112    0.544807281225085
5
0.21500000000000002 ps
C     -0.25450345733153645    0.6346550767600901    -0.49318133178076046
H     0.7622645225838137    0.6200107413802586    0.16508107752955856
H     -0.11508510900323407    -0.21470121333913936    -1.1645969999078492
H     -0.570674743971483    1.544698096842514    -1.0493652865875187
H     -1.3548418456624853    0.18118688652005588    0.5438679747186859
5
0.21750000000000003 ps
C     -0.25536728183620827    0.6324107268582932    -0.4927588863128341
H     0.7872063725410603    0.6128557928344995    0.17847724445009136
H     -0.10894535477573543    -0.2175555852536527    -1.1648644687956098
H     -0.5908796524521973    1.5749861022800258    -1.066771902885059
H     -1.3575176595956115    0.1861032103390218    0.5413960202727714
5
0.22000000000000003 ps
C     -0.25628036508869456    0.6301744693966767    -0.4921378375199424
H     0.810803703517273    0.6060879212060496    0.19087565093840525
H     -0.10284969821851489    -0.2207390589691577    -1.1656161782844272
H     -0.6106018126944028    1.6043900097583623    -1.08355024385196
H     -1.3587264937457968    0.19172560665477265    0.5373919203628037
5
0.22250000000000003 ps
C     -0.25724121591102234    0.6279778005121213    -0.491332629188914
H     0.8328733467873884    0.599729056867597    0.20217949020955173
H     -0.09682522803710764    -0.22421233792752465    -1.1668244248338122
H     -0.629665598261784    1.6324954449134077    -1.0994575985026018
H     -1.3584498457452676    0.19803181017233992    0.5318541516864089
5
0.225 ps
C     -0.2582488567384944    0.6258429184059002    -0.4903552350011288
H     0.8532710447616039    0.593799410913187    0.21231862057463102
H     -0.09090096543106989    -0.22792674996854048    -1.1684531298768444
H     -0.6479294390210056    1.6589908893086314    -1.1143140393593463
H     -1.3566666961209655    0.20500018034353362    0.524779638900935
5
0.2275 ps
C     -0.2593025525165489    0.6237845594875207    -0.48921573653739553
H     0.8718836016403184    0.5883173265357194    0.2212440936394635
H     -0.08510768105698156    -0.23182564636375536    -1.1704588964060234
H     -0.6652807918488371    1.6836475235523318    -1.1279896155199427
H     -1.3533538149019593    0.21260945831478298    0.5161643326510901
5
0.23 ps
C     -0.26040163900174185    0.6218116593143836    -0.4879228355884478
H     0.8886222559818896    0.5832992489911407    0.2289235637371646
H     -0.07947761857486035    -0.2358460332707386    -1.172792240604339
H     -0.6816310870301127    1.7063013403625387    -1.1403931635338207
H     -1.34848601958991    0.22083846720542608    0.50600392414334
5
0.2325 ps
C     -0.26154540029722906    0.6199287838843199    -0.4864842816390456
H     0.9034172127488871    0.5787597628162976    0.235337523650801
H     -0.0740441382732555    -0.2399203308922839    -1.175398924672921
H     -0.6969111201208265    1.726838133756743    -1.15146302879169
H     -1.342037146306809    0.22966574409658763    0.4942947405176402
5
0.23500000000000001 ps
C     -0.26273296173484806    0.618137328007086    -0.4849072232897227
H     0.9162132155389211    0.5747116623683172    0.24047627390028922
H     -0.06884129939651235    -0.24397816135799882    -1.1782213203212137
H     -0.711067084224609    1.7451813532488982    -1.1611596311632972
H     -1.3339813016315716    0.23906908731164048    0.481034880176645
5
0.23750000000000002 ps
C     -0.2639631739375703    0.6164365024852024    -0.4831985056040931
H     0.9269660221336448    0.5711660339818772    0.24433752231832426
H     -0.06390340232339164    -0.24794807977279962    -1.1811997414235913
H     -0.7240572784557009    1.7612825201220017    -1.1694596482115762
H     -1.3242944825990164    0.24902499747946136    0.4662256643444137
5
0.24000000000000002 ps
C     -0.2652344686920955    0.6148241416413522    -0.48136494033755456
H     0.9356396509096755    0.5681323363134729    0.2469245150548211
H     -0.059264511782155166    -0.2517591811445446    -1.1842736970889325
H     -0.7358494468651792    1.7751138018123305    -1.176351542042519
H     -1.3129566885161312    0.2595079851636207    0.4498735017013098
5
0.24250000000000002 ps
C     -0.2665446686662465    0.6132973645829366    -0.47941357695509557
H     0.9422042813722916    0.5656184708833819    0.24824461191143554
H     -0.054957980270935576    -0.2553425362090799    -1.1873830308272533
H     -0.7464186679028946    1.7866623397000987    -1.1818321659490159
H     -1.299954683248054    0.27048971159876195    0.4319922873396969
5
0.24500000000000002 ps
C     -0.2678907321788188    0.6118531217569595    -0.47735200175986764
H     0.9466347128755466    0.5636308383226474    0.24830821470551992
H     -0.051015987391981946    -0.2586324291322319    -1.1904689259032308
H     -0.7557457066580142    1.795925970548939    -1.185904221696928
H     -1.2852856083803728    0.2819379227485806    0.41260648495256647
5
0.24750000000000003 ps
C     -0.2692684120503333    0.6104886550577071    -0.4751886915419411
H     0.9489093081136195    0.5621743780470063    0.24712749497939349
H     -0.047469106581951005    -0.2615673879642235    -1.1934747700899457
H     -0.7638157475815184    1.8029100423526105    -1.1885743800463573
H     -1.2689616947320779    0.29381513152239125    0.3917550699450852
