2
0.0 ps
C     -3.84811999935477    0.7570100001316666    0.0
H     -2.5762000076959928    1.0165599984295435    0.0
2
0.0025 ps
C     -3.848038903625481    0.757026548654008    0.0
H     -2.577167452223875    1.0163625801742993    0.0
2
0.005 ps
C     -3.8477970773959864    0.7570758960955647    0.0
H     -2.580053049239766    1.0157737406989586    0.0
2
0.007500000000000001 ps
C     -3.8473960117249866    0.7571577381885478    0.0
H     -2.5848400423509874    1.0147968993394232    0.0
2
0.01 ps
C     -3.8468382563834553    0.7572715546226765    0.0
H     -2.5914990349445963    1.0134380548148714    0.0
2
0.0125 ps
C     -3.8461275271121225    0.7574165871580355    0.0
H     -2.5999867037472244    1.011706047740747    0.0
2
0.015000000000000001 ps
C     -3.845268857266363    0.7575918086801977    0.0
H     -2.610243982120777    1.0096129313483213    0.0
2
0.0175 ps
C     -3.8442687947110477    0.7577958830215339    0.0
H     -2.622193702514911    1.007174452569547    0.0
2
0.02 ps
C     -3.843135643795351    0.7580271155834637    0.0
H     -2.6357376998143396    1.0044106431325817    0.0
2
0.022500000000000003 ps
C     -3.8418797500302584    0.7582833952447072    0.0
H     -2.6507534036512537    1.0013465149398726    0.0
2
0.025 ps
C     -3.840513821220519    0.7585621288305987    0.0
H     -2.667089993950882    0.9980128445736018    0.0
2
0.027500000000000004 ps
C     -3.839053272700696    0.7588601706636694    0.0
H     -2.6845642668204377    0.9944470169088943    0.0
2
0.030000000000000002 ps
C     -3.837516575430661    0.7591737515307349    0.0
H     -2.702956464083771    0.9906938761455621    0.0
2
0.0325 ps
C     -3.835925573652105    0.7594984138614044    0.0
H     -2.7220064637096115    0.9868065031953083    0.0
2
0.035 ps
C     -3.8343057237555587    0.7598289629844985    0.0
H     -2.7414109081750597    0.9828468016724069    0.0
2
0.037500000000000006 ps
C     -3.8326861891601105    0.7601594477667576    0.0
H     -2.7608220491182944    0.9788857336556948    0.0
2
0.04 ps
C     -3.831099710252629    0.7604831871532264    0.0
H     -2.7798492750252963    0.9750030079464008    0.0
2
0.0425 ps
C     -3.8295821589180257    0.7607928610705288    0.0
H     -2.798064402749279    0.9712860002723642    0.0
2
0.045000000000000005 ps
C     -3.8281716913842474    0.7610806832986509    0.0
H     -2.8150117642328993    0.9678276949755881    0.0
2
0.0475 ps
C     -3.8269074396644123    0.7613386684973137    0.0
H     -2.8302238035109726    0.9647235022632914    0.0
2
0.05 ps
C     -3.825827737657561    0.7615589941906578    0.0
H     -2.84324223398706    0.9620669408206938    0.0
2
0.052500000000000005 ps
C     -3.8249679631589797    0.761734441130015    0.0
H     -2.853643789645517    0.9599443829780996    0.0
2
0.05500000000000001 ps
C     -3.8243581799441007    0.7618588744539835    0.0
H     -2.8610683755181663    0.9584293102822973    0.0
2
0.0575 ps
C     -3.8240208590161235    0.7619277086942304    0.0
H     -2.8652462889911487    0.9575767586737757    0.0
2
0.060000000000000005 ps
C     -3.8239690103848583    0.7619382890076496    0.0
H     -2.866020571611364    0.9574187573418697    0.0
2
0.0625 ps
C     -3.8242050439865563    0.7618901236188526    0.0
H     -2.8633618851253484    0.9579612930968255    0.0
2
0.065 ps
C     -3.8247205566978244    0.7617849272824395    0.0
H     -2.8573720523355597    0.9591835878170821    0.0
2
0.0675 ps
C     -3.825497072829807    0.7616264701766037    0.0
H     -2.8482731801065317    0.9610403180257757    0.0
2
0.07 ps
C     -3.8265076261051076    0.7614202550824122    0.0
H     -2.8363884991087476    0.9634655247628156    0.0
2
0.07250000000000001 ps
C     -3.8277188982336803    0.7611730809826497    0.0
H     -2.8221168081930306    0.9663778285061119    0.0
2
0.07500000000000001 ps
C     -3.829093580699859    0.7608925611118272    0.0
H     -2.80590427105528    0.9696861843886394    0.0
2
0.0775 ps
C     -3.8305926501963827    0.7605866586275345    0.0
H     -2.788217257921414    0.9732954241670022    0.0
2
0.08 ps
C     -3.8321773285526333    0.7602632866643868    0.0
H     -2.769518964120821    0.9771110274721964    0.0
2
0.0825 ps
C     -3.8338106013065887    0.7599299984518517    0.0
H     -2.750251304141471    0.9810428165372622    0.0
2
0.085 ps
C     -3.8354582643945294    0.7595937737250816    0.0
H     -2.7308224422820517    0.9850075007120647    0.0
2
0.08750000000000001 ps
C     -3.837089537810547    0.7592608935005962    0.0
H     -2.711599493558939    0.9889301659277118    0.0
2
0.09000000000000001 ps
C     -3.838677324006912    0.7589368873466982    0.0
H     -2.692905464707306    0.9927448989207006    0.0
2
0.09250000000000001 ps
C     -3.8401982018488576    0.7586265346170643    0.0
H     -2.675019350106578    0.9963947676582146    0.0
2
0.095 ps
C     -3.84163224245522    0.7583339020305969    0.0
H     -2.658178351497663    0.9998313683791269    0.0
2
0.0975 ps
C     -3.8429627194828546    0.7580624027912408    0.0
H     -2.642581355155148    1.0030141160367583    0.0
2
0.1 ps
C     -3.844175769569094    0.7578148658786334    0.0
H     -2.628393001495387    1.0059094138482498    0.0
2
0.10250000000000001 ps
C     -3.8452600425663013    0.7575936074217925    0.0
H     -2.615747874199552    1.0084897984554833    0.0
2
0.10500000000000001 ps
C     -3.8462063677534766    0.7574004988124998    0.0
H     -2.6047544965582436    1.0107331244247253    0.0
2
0.10750000000000001 ps
C     -3.847007451940016    0.7572370283107259    0.0
H     -2.595498945369032    1.0126218267889933    0.0
2
0.11000000000000001 ps
C     -3.8476576181016466    0.7571043543789926    0.0
H     -2.588047979568879    1.0141422826143829    0.0
2
0.1125 ps
C     -3.8481525884022303    0.7570033499592831    0.0
H     -2.5824516379133717    1.0152842809135578    0.0
2
0.115 ps
C     -3.848489312577096    0.7569346374934153    0.0
H     -2.5787452943541225    1.0160406032221965    0.0
2
0.11750000000000001 ps
C     -3.8486658411548658    0.7568986147935904    0.0
H     -2.576951177643976    1.016406713505955    0.0
2
0.12000000000000001 ps
C     -3.8486812425908052    0.7568954719522968    0.0
H     -2.5770794265364403    1.0163805428348134    0.0
2
0.12250000000000001 ps
C     -3.848535568523124    0.7569251984321598    0.0
H     -2.5791295104657253    1.0159621994768602    0.0
2
0.125 ps
C     -3.8482298576575267    0.7569875822732556    0.0
H     -2.5830900405713924    1.0151540074609118    0.0
2
0.1275 ps
C     -3.8477661738688975    0.7570822023180216    0.0
H     -2.588937422199694    1.0139607815491987    0.0
2
0.13 ps
C     -3.847147693432724    0.7572084104106758    0.0
H     -2.596634776267842    1.0123900473454839    0.0
2
0.1325 ps
C     -3.8463788366122764    0.7573653045453289    0.0
H     -2.606130362207301    1.0104523631117353    0.0
2
0.135 ps
C     -3.8454654441827683    0.7575516928441831    0.0
H     -2.617355463928376    1.0081617511615306    0.0
2
0.1375 ps
C     -3.844414999305902    0.7577660482814677    0.0
H     -2.6302217335840314    1.005536239895787    0.0
2
0.14 ps
C     -3.843236893542871    0.758006454400403    0.0
H     -2.644618007299407    1.0025985135900246    0.0
2
0.14250000000000002 ps
C     -3.841942732736365    0.7582705428944357    0.0
H     -2.6604066435181233    0.9993766595971884    0.0
2
0.14500000000000002 ps
C     -3.840546673464157    0.7585554249499923    0.0
H     -2.677419494630589    0.9959049903835258    0.0
2
0.14750000000000002 ps
C     -3.839065773188508    0.7588576197944361    0.0
H     -2.695453713021501    0.992224899353147    0.0
2
0.15000000000000002 ps
C     -3.8375203266113345    0.7591729860589047    0.0
H     -2.7142677194180713    0.9883856835532299    0.0
2
0.15250000000000002 ps
C     -3.8359341469655748    0.7594966643775539    0.0
H     -2.7335778259937564    0.9844452327688105    0.0
2
0.155 ps
C     -3.834334734689882    0.759823042967525    0.0
H     -2.753056201217387    0.9804704448188681    0.0
2
0.1575 ps
C     -3.832753259195836    0.7601457613495599    0.0
H     -2.7723310635064204    0.9765371860391354    0.0
2
0.16 ps
C     -3.8312242663249747    0.7604577700447847    0.0
H     -2.7909901476550254    0.9727295839173274    0.0
2
0.1625 ps
C     -3.8297850210858355    0.7607514646968209    0.0
H     -2.8085885244559456    0.9691384314087764    0.0
2
0.165 ps
C     -3.8284744107301596    0.7610189099117829    0.0
H     -2.8246616699726963    0.9658585200001392    0.0
2
0.1675 ps
C     -3.8273313753407954    0.7612521595149885    0.0
H     -2.8387441789738816    0.9629848210165098    0.0
2
0.17 ps
C     -3.8263929057260295    0.7614436651037926    0.0
H     -2.8503936508339014    0.9606076114268581    0.0
2
0.17250000000000001 ps
C     -3.8256917457369384    0.7615867449163348    0.0
H     -2.8592181148395595    0.9588068773927457    0.0
2
0.17500000000000002 ps
C     -3.8252540386225964    0.7616760641200014    0.0
H     -2.8649041380807705    0.9576465785278372    0.0
2
0.17750000000000002 ps
C     -3.825097232815288    0.7617080621601964    0.0
H     -2.8672418534618602    0.9571695406424655    0.0
2
0.18000000000000002 ps
C     -3.8252285805907897    0.7616812591260975    0.0
H     -2.8661432843659296    0.9573937163837447    0.0
2
0.18250000000000002 ps
C     -3.8256444987022284    0.7615963862207068    0.0
H     -2.861652034106028    0.9583102079908863    0.0
2
0.18500000000000003 ps
C     -3.8263308812339667    0.7614563219194032    0.0
H     -2.8539381331952445    0.9598843187693885    0.0
2
0.18750000000000003 ps
C     -3.8272643333583805    0.7612658402075886    0.0
H     -2.843282286884855    0.9620587675632291    0.0
2
0.19 ps
C     -3.828414100323719    0.761031216948379    0.0
H     -2.830052810190739    0.9647583954297266    0.0
2
0.1925 ps
C     -3.8297443705027523    0.7607597599188728    0.0
H     -2.814678118416541    0.9678957792667551    0.0
2
0.195 ps
C     -3.831216623777313    0.7604593295951    0.0
H     -2.7976186920423762    0.9713769527017325    0.0
2
0.1975 ps
C     -3.832791755016147    0.7601379058317822    0.0
H     -2.779341738669891    0.9751065766150507    0.0
2
0.2 ps
C     -3.8344317998070325    0.7598032357067162    0.0
H     -2.760300611499547    0.9789921390380509    0.0
2
0.2025 ps
C     -3.8361011916065624    0.7594625769848109    0.0
H     -2.7409198264070525    0.9829470125920154    0.0
2
0.20500000000000002 ps
C     -3.8377675617951246    0.7591225348576025    0.0
H     -2.7215855375902125    0.9868923980426816    0.0
2
0.20750000000000002 ps
C     -3.8394021465645927    0.7587889789131116    0.0
H     -2.7026407065393627    0.9907583101277572    0.0
2
0.21000000000000002 ps
C     -3.8409798883027375    0.7584670224471881    0.0
H     -2.6843839164692755    0.9944838194858074    0.0
2
0.21250000000000002 ps
C     -3.842479321429613    0.7581610457599112    0.0
H     -2.6670707576012433    0.9980167699734144    0.0
2
0.21500000000000002 ps
C     -3.8438823221246294    0.7578747472266761    0.0
H     -2.6509168346693373    1.0013131649487106    0.0
2
0.21750000000000003 ps
C     -3.84517378530315    0.7576112092148635    0.0
H     -2.636101640278653    1.0043363768677804    0.0
2
0.22000000000000003 ps
C     -3.8463412754434114    0.7573729693366451    0.0
H     -2.6227727379757777    1.007056293680717    0.0
2
0.22250000000000003 ps
C     -3.8473746831023137    0.7571620905409113    0.0
H     -2.611049875220246    1.0094484795321828    0.0
2
0.225 ps
C     -3.8482659072519203    0.7569802259361942    0.0
H     -2.6010287862420562    1.01149339874431    0.0
2
0.2275 ps
C     -3.849008574999885    0.7568286759849518    0.0
H     -2.592784547072296    1.013175731183856    0.0
2
0.23 ps
C     -3.849597804424856    0.7567084368997491    0.0
H     -2.5863744146517393    1.0144837929092436    0.0
2
0.2325 ps
C     -3.8500300125936278    0.7566202398195837    0.0
H     -2.5818401256518    1.0154090670695204    0.0
2
0.23500000000000001 ps
C     -3.850302768768799    0.7565645807645596    0.0
H     -2.5792096551941635    1.015945845017251    0.0
2
0.23750000000000002 ps
C     -3.8504146918850886    0.756541741557035    0.0
H     -2.5784984474732306    1.0160909751857907    0.0
2
0.24000000000000002 ps
C     -3.8503653923799024    0.7565518016917683    0.0
H     -2.5797105873700694    1.0158436240078665    0.0
2
0.24250000000000002 ps
C     -3.8501554627402386    0.7565946402649288    0.0
H     -2.582839788301121    1.0152050743336278    0.0
2
0.24500000000000002 ps
C     -3.8497864984809924    0.7566699316932316    0.0
H     -2.5878680468554927    1.0141789999674808    0.0
2
0.24750000000000003 ps
C     -3.8492611627803828    0.7567771325243319    0.0
H     -2.594764612132454    1.0127716759866974    0.0
