5
0.0 ps
C     -0.5021300048002586    0.6955999817537283    0.07178999679084276
H     0.5490136948399685    0.7077837926568259    0.2787968500944577
H     -0.3563308594945393    -0.03168582019969157    0.9599739451497166
H     -1.2496606964359753    0.2191482392638646    -0.7355314475859012
H     -0.8328220816543335    1.632164005911543    0.12817069061897365
5
0.005 ps
C     -0.5021446230979539    0.6955002558875999    0.07178382863986164
H     0.6638765961033728    0.7841445169778339    0.20256071399138684
H     -0.4579789849718623    -0.11724969153739401    1.0396818395955945
H     -1.253005343228688    0.21041671806040918    -0.7426631690341491
H     -0.8425178507930641    1.6512881551426877    0.13190422439118055
5
0.01 ps
C     -0.502113986491966    0.6951696714265381    0.07183884403332505
H     0.8408287245422611    0.8900731391619846    0.09116840391627964
H     -0.6057862619241672    -0.24250258190826648    1.157458847266508
H     -1.2609596062041113    0.18780568483921387    -0.7608624973999734
H     -0.8640738576503266    1.6971665051720588    0.14306265864591758
5
0.015000000000000001 ps
C     -0.5019216356173265    0.6945605636415316    0.07206539069469184
H     1.0223300218705949    0.9939574644053923    -0.022025749145794932
H     -0.7545740811773597    -0.36735581858495925    1.2755924008185109
H     -1.2705787481519382    0.1570417849275496    -0.785253366379364
H     -0.8894624602675011    1.756164454159226    0.15981199014463943
5
0.02 ps
C     -0.5014718740082258    0.6936452065666353    0.07254950775202643
H     1.2000066735601294    1.095731505567462    -0.1352841774792947
H     -0.9021239376562715    -0.48819958112688305    1.3900659473966128
H     -1.2798962071689446    0.12262442186273714    -0.8121774148451023
H     -0.9156363314034255    1.8205694669321721    0.17974661055877972
5
0.025 ps
C     -0.5006928957834212    0.6924117291161771    0.07335358815411981
H     1.3699862244101928    1.1949725921240455    -0.24770198983609773
H     -1.0473763868041999    -0.6031488254223961    1.498682258275139
H     -1.2878471231825641    0.08722130467218031    -0.8395126593569492
H     -0.941703785670024    1.8863930533387747    0.2012926815642532
5
0.030000000000000002 ps
C     -0.499533600431023    0.6908604092120892    0.07452099627870745
H     1.529531636458737    1.2908600354792923    -0.3583313170707056
H     -1.1891483963568665    -0.7106095457509256    1.599678267075534
H     -1.2938445139838364    0.05231939916168478    -0.8660822774650561
H     -0.9673073013146295    1.9513716155325873    0.22357134900585546
5
0.035 ps
C     -0.497960486101772    0.6890013058522639    0.07607952092361588
H     1.6763428940490446    1.3824576976539074    -0.4661783209220839
H     -1.3261736471072727    -0.809147084910513    1.6915353577962295
H     -1.297521351903854    0.01879293069163713    -0.8911845164744924
H     -0.9921798031129997    2.0140124301582785    0.24607418683614785
5
0.04 ps
C     -0.4959552282572769    0.6868525871733676    0.07804377847026359
H     1.808383089057258    1.4688128772424198    -0.5702247927601556
H     -1.4571593309931938    -0.8974650694230354    1.7729204984764264
H     -1.2986167112664044    -0.012788885447493318    -0.9143467888329407
H     -1.0160566827478483    2.0731859092673255    0.26846909383530393
5
0.045000000000000005 ps
C     -0.4935128173196703    0.6844392293823853    0.08041694777991674
H     1.9238434643792246    1.5489975792146946    -0.6694512670717496
H     -1.5808258419300993    -0.9744074752768184    1.8426690726645876
H     -1.2969310929980784    -0.04201615915384513    -0.9352132857211801
H     -1.0386680400502808    2.1279562298814927    0.29050749623104266
5
0.05 ps
C     -0.49064006276451594    0.6817919198076363    0.08319211204467199
H     2.0211458247587037    1.622132730690776    -0.7628591755851571
H     -1.6959371006241655    -1.038967009904778    1.899783829799114
H     -1.292309918205341    -0.06857217265905688    -0.953496518995506
H     -1.0597451178809214    2.1775124312082106    0.3119830884473329
5
0.055 ps
C     -0.4873543139786114    0.6789460714869913    0.08635338252093197
H     2.098954038765424    1.687406187149863    -0.849491150554821
H     -1.8013257818327928    -1.0902945899353444    1.9434394732053843
H     -1.284637795477209    -0.09220380667987692    -0.9689574553279686
H     -1.0790275665228388    2.221142065840503    0.33271427919288254
5
0.060000000000000005 ps
C     -0.4836822951584857    0.6759408961533665    0.08987691316930313
H     2.1561863184560197    1.7440875745119597    -0.9284493234357459
H     -1.8959151952351505    -1.1277079656868192    1.9729884106120026
H     -1.2738367157708088    -0.11270858431494407    -0.9813981673053727
H     -1.0962695443432253    2.2582230830388896    0.35253728859336564
5
0.065 ps
C     -0.4796589867937251    0.6728185055065888    0.09373187388650095
H     2.1920256134179636    1.7915409163079101    -0.9989117073174942
H     -1.9787385294556927    -1.1506986824159384    1.9879657180732222
H     -1.259865521389328    -0.12992926387739498    -0.9906598853158113
H     -1.1112447399518461    2.2882234752290906    0.3713040103587294
5
0.07 ps
C     -0.47532651077319793    0.6696230248166526    0.09788142390440481
H     2.2059271508037055    1.8292353728557853    -1.0601467788501624
H     -2.0489557528640194    -1.1589370066181535    1.9880924350572324
H     -1.2427196112768453    -0.1437518193758149    -0.9966232846337179
H     -1.1237506040442775    2.310704018110564    0.3888819754814573
5
0.075 ps
C     -0.47073299278792996    0.6663997117906284    0.10228371022129125
H     2.197622706735533    1.8567542096174934    -1.1115263432246367
H     -2.1058682912052618    -1.1522746302419562    1.973276770114009
H     -1.2224304675957829    -0.15410485768565774    -0.999209573123722
H     -1.1336119852971085    2.3253219334072033    0.4051551904568615
5
0.08 ps
C     -0.4659313868055372    0.6631940791582628    0.10689290523221712
H     2.167121401179448    1.8738020338288124    -1.1525367312195103
H     -2.14893152845137    -1.1307450535779733    1.9436130082428593
H     -1.1990648306986575    -0.16095953786511305    -0.998381715602079
H     -1.1406842705087423    2.331834419809011    0.42002527497976144
5
0.085 ps
C     -0.460978253475415    0.6600510226399223    0.11166029111432574
H     2.1147069023635203    1.880210310734215    -1.1827883566690935
H     -2.177765152008554    -1.0945615971260325    1.8993780192652319
H     -1.1727234433294718    -0.16432954116153362    -0.9941454868448675
H     -1.1448560701901156    2.3301015197796553    0.4334126300340639
5
0.09000000000000001 ps
C     -0.4559324882660907    0.657013957419503    0.11653539496112099
H     2.0409309805349394    1.8759411674001376    -1.202023659368296
H     -2.192161369341083    -1.0441130269292884    1.8410253341874854
H     -1.1435393174610897    -0.16427088070490908    -0.9865502253018189
H     -1.1460514590117779    2.320088050496558    0.4452575188261985
5
0.095 ps
C     -0.45085399631563666    0.6541239662024734    0.12146717769803031
H     1.9466033893067796    1.8610895055311873    -1.2101234742953844
H     -2.192091060172537    -0.9799568083222494    1.7691768187464172
H     -1.111675478577346    -0.1608814681787327    -0.9756892775631782
H     -1.1442317663988681    2.3018644729976736    0.45552102612997614
5
0.1 ps
C     -0.4458023093454772    0.6514189603905827    0.12640528146242325
H     1.8327780921923629    1.835883478002481    -1.2071119100888146
H     -2.1777080162925295    -0.9028100429557364    1.6846120707480559
H     -1.077322114268513    -0.15430043172336308    -0.9617002550681104
H     -1.1393969114341453    2.2756066756723428    0.46418591799857273
5
0.10500000000000001 ps
C     -0.44083513505948196    0.6489328525785101    0.1313013448701645
H     1.7007359280614556    1.8006834583196505    -1.1931599121645542
H     -2.149351626137819    -0.8135382260415567    1.5882558952353327
H     -1.0406929706353651    -0.14470723666733726    -0.9447654711050951
H     -1.1315862893821456    2.2415947528296605    0.4712574788629695
5
0.11 ps
C     -0.4360068202053175    0.6466947328304297    0.13611040447623265
H     1.5519640525905627    1.755979830536522    -1.1685879133000023
H     -2.107548901367804    -0.7131421911257041    1.481164855087824
H     -1.0020206148286963    -0.13232072665949887    -0.9251135283176278
H     -1.1208792558716192    2.2002110256535463    0.47676448308985353
5
0.115 ps
C     -0.43136669323859755    0.644728031747014    0.14079241565912584
H     1.3881334512359536    1.7023905962913584    -1.1338686782721512
H     -2.0530184115416716    -0.6027443865168388    1.364515929674204
H     -0.9615495542496282    -0.11739835645771937    -0.9030246911814632
H     -1.1073953538767995    2.1519379269082295    0.4807606130845126
5
0.12000000000000001 ps
C     -0.426957229050849    0.6430496376474781    0.14531395014929635
H     1.2110800038132221    1.6406625464427058    -1.0896341879123916
H     -1.9866847369306437    -0.4835786220226903    1.2396074114388627
H     -0.9195243668348615    -0.10023652035920194    -0.8788476879535093
H     -1.091294685420324    2.097357434286887    0.4833270014248538
5
0.125 ps
C     -0.4228119451817532    0.6416689079324033    0.14965016429769068
H     1.0228082415708135    1.5716886159395298    -1.036698478899567
H     -1.909730977840729    -0.35699629000610444    1.1079050250626403
H     -0.876164452859937    -0.0811761888227335    -0.8530518363648817
H     -1.0727795004649106    2.0371573651970567    0.4845776006491124
5
0.13 ps
C     -0.4189529043993906    0.6405864640818852    0.15378718139042877
H     0.8255420922331503    1.496558329836444    -0.9761020481713718
H     -1.82373698579655    -0.2245010841616743    0.9712118927586696
H     -0.8316008557848377    -0.06063723836064919    -0.8263943840692026
H     -1.0520996779197682    1.972164352082583    0.4846725477436289
5
0.135 ps
C     -0.4153877133239276    0.6397925578527737    0.1577250597902481
H     0.6219177282058976    1.4167251976656856    -0.9091781170812897
H     -1.7310526076588548    -0.0878368588810715    0.8322178570916265
H     -0.7857176719815855    -0.03932502044744357    -0.8004796908647757
H     -1.0295667189391073    1.9034903635201659    0.4838588851735304
5
0.14 ps
C     -0.4121061891253129    0.6392645729986671    0.16148128233006662
H     0.4161283875188667    1.335067287169532    -0.8378113180933706
H     -1.6361575152500374    0.050612513458545214    0.6963943446322177
H     -0.7379682082703293    -0.019558086540173217    -0.7795946709320645
H     -1.0055623386914798    1.8332295110491499    0.4826282063927865
5
0.14500000000000002 ps
C     -0.40907823312186786    0.6389628666333363    0.16509257555616816
H     0.2202293727603573    1.2629307482310623    -0.765415724391403
H     -1.5499212468277856    0.18571128950104493    0.5768785686910395
H     -0.6897062566550978    -0.01371781716027246    -0.775392449228107
H     -0.9802775117533502    1.7680256094847753    0.48247244007728946
5
0.15 ps
C     -0.4062590873346547    0.6388250774121934    0.16860140309874658
H     0.07090194404389273    1.2439320763860202    -0.6985536585652008
H     -1.495767585909942    0.2984697217338544    0.49546796376706004
H     -0.6568244605876407    -0.072029550853037    -0.8097816841052452
H     -0.9516109223957872    1.7342210647511807    0.48955864740482713
5
0.155 ps
C     -0.403618136493495    0.6387679259428894    0.17200212329918058
H     -0.006051795101075171    1.2992685542636377    -0.6524025822252764
H     -1.496953262425105    0.3458067818033574    0.45577317240219895
H     -0.6453514558012429    -0.22736627524634362    -0.8916145166938727
H     -0.9164444723494263    1.7875659257731444    0.5243730794996103
5
0.16 ps
C     -0.4011859331167267    0.6387221161997662    0.1752112936746765
H     -0.03062092380038902    1.3675228203827279    -0.649823979685032
H     -1.5386149988338327    0.33370060677133756    0.4350667400660092
H     -0.6344403737050285    -0.42152364863626773    -0.996454688250447
H     -0.8901348132287238    1.9261216041282858    0.6090636772969382
5
0.165 ps
C     -0.39904587205393344    0.6386736403627288    0.1781181649762812
H     -0.028856754887677284    1.4269262820980742    -0.6800390819148918
H     -1.5928800700828185    0.30356526029436653    0.4196664008227439
H     -0.6203820452157901    -0.6209562406066559    -1.1047015089963796
H     -0.8772178336470394    2.0968642767676084    0.72825421041612
5
0.17 ps
C     -0.3972900026440687    0.6386476596441096    0.18062223720355464
H     -0.01903752055826286    1.4810335082832857    -0.7216635748503935
H     -1.648959118807104    0.270428895542457    0.405801058824371
H     -0.6041434071372268    -0.8164729797515669    -1.2089667275188987
H     -0.8681398027943719    2.2717200396940522    0.8581419237317164
5
0.17500000000000002 ps
C     -0.39599915277724784    0.6386790316141467    0.1826411229092497
H     -0.007484232352393721    1.5321468321855003    -0.7655793449300675
H     -1.7036798524438175    0.23746744838884265    0.3923619479654516
H     -0.5861781160657249    -1.0042538684449511    -1.3060425616648679
H     -0.8583342698356066    2.4409748622325718    0.9884923645252153
5
0.18000000000000002 ps
C     -0.3952393690692899    0.6388008082536761    0.18410940048390262
H     0.003978866086311388    1.5805458115849886    -0.8087788608023594
H     -1.7556874891551388    0.20556112206521196    0.37894510442717144
H     -0.5666394784803165    -1.1816887000613656    -1.3939431608535149
H     -0.8463906949838327    2.6004645489981617    1.115496431417231
5
0.185 ps
C     -0.3950621687075388    0.6390416522455122    0.18497680444702477
H     0.014678482766679558    1.6258872048043485    -0.8500123393570681
H     -1.8041038918123582    0.17516991990547903    0.3653861685582784
H     -0.5456106979794608    -1.3465593784858854    -1.4711411227756512
H     -0.8318162481423913    2.747512367856651    1.2371408405325213
5
0.19 ps
C     -0.3955052367292717    0.6394255005423733    0.18520700201614468
H     0.02425306674964335    1.667687614686313    -0.8885379312189605
H     -1.8482291941307023    0.14665575914579718    0.35161957350887446
H     -0.5231812683736322    -1.4968674113647777    -1.5363697421465894
H     -0.8144102622837089    2.8799557981935884    1.3519159635945979
5
0.195 ps
C     -0.3965930309761408    0.639971683149758    0.18477680126901272
H     0.03244820782133975    1.705459420344791    -0.923796907213501
H     -1.8874679317030874    0.12034058688550879    0.33762757404835186
H     -0.4994677273914143    -1.6308059331514704    -1.5885710091701712
H     -0.7941055327839625    2.9959230894646196    1.4584994286887378
5
0.2 ps
C     -0.39833729848798916    0.6406951122038953    0.18367557502321943
H     0.039060921907971634    1.738752208320734    -0.9553260977760177
H     -1.9213104208371012    0.09651642622647752    0.32341889493525733
H     -0.4746169706490625    -1.746767437490899    -1.6268835972934426
H     -0.7709217507402918    3.0937872610559123    1.5556847707361032
5
0.20500000000000002 ps
C     -0.40073757703913854    0.6416064726770065    0.1819047552471597
H     0.04392235147336244    1.7671683817142034    -0.9827340819626832
H     -1.9493296635616104    0.07544559135508831    0.3090183481398563
H     -0.4488040450378843    -1.843359846622078    -1.650642041033558
H     -0.7449475228965659    3.1721640728342955    1.6423732115260667
5
0.21000000000000002 ps
C     -0.4037817444486321    0.6427124143698494    0.1794773073178376
H     0.04689181584529091    1.790371016022432    -1.0056957843363712
H     -1.9711828059966476    0.05735869933521412    0.29446097067029325
H     -0.42222807765391335    -1.919423142220841    -1.6593783947242084
H     -0.7163304827681458    3.2299204983664245    1.7175820483162623
5
0.215 ps
C     -0.407446658929065    0.6440157576134291    0.1764171281454671
H     0.04785471053903643    1.8080888805902184    -1.0239525304938426
H     -1.9866136219029973    0.04245225870064981    0.27978825011284486
H     -0.3951074708895207    -1.9740440927717477    -1.6528234093949878
H     -0.6852698735587813    3.266184388739187    1.7804568395722111
5
0.22 ps
C     -0.41169891810867965    0.6455157253459384    0.17275833412860894
H     0.046721871699754954    1.820120006875261    -1.0373134816436023
H     -1.9954547324461334    0.030886347790648194    0.265045441204007
H     -0.3676747042072077    -2.0065682434128114    -1.630906108812739
H     -0.6520098378235719    3.2803524477041495    1.8302835919348388
5
0.225 ps
C     -0.4164957533023677    0.6472082121068338    0.16854441896217343
H     0.043429532880895835    1.8263341889638798    -1.0456570363391404
H     -1.9976290465128985    0.022782575215490295    0.25027953077259696
H     -0.3401708188581404    -2.0166090798802934    -1.5937514311640009
H     -0.6168327827881203    3.2720957262121733    1.8664998839453781
5
0.23 ps
C     -0.4217860682787342    0.6490860984870263    0.16382727026842628
H     0.037939506704150604    1.8266745154000792    -1.0489316720209
H     -1.9931502131747267    0.018222417124558406    0.23553763979639816
H     -0.31283948451892707    -2.0040562577809093    -1.5416770230504713
H     -0.5800526530065953    3.2413642319815343    1.8887058286671639
5
0.23500000000000001 ps
C     -0.42751162744165017    0.651139618287135    0.15866603936380702
H     0.030239417068908436    1.8211579539495457    -1.0471560257444243
H     -1.9821220253542204    0.017245992590588784    0.22086576047499126
H     -0.285919857800875    -1.969097962276114    -1.4751989379945813
H     -0.5420087283510397    3.1884055497511037    1.896684596711203
5
0.24000000000000002 ps
C     -0.43360839640128024    0.6533567850011247    0.15312586125209965
H     0.020342895779147805    1.8098749978156103    -1.0404181534148456
H     -1.9647368128005316    0.019851336568749718    0.20630779520983125
H     -0.259638669098037    -1.912248745433043    -1.395040493784569
H     -0.5030593511439089    3.1137886725695347    1.890426761126663
5
0.24500000000000002 ps
C     -0.4400080377239267    0.6557238841814719    0.14727642254479456
H     0.008289714424350749    1.7929883968862446    -1.028873990526865
H     -1.941272986246747    0.025994263132024648    0.19190494073474162
H     -0.23420454535903787    -1.8343185111572509    -1.302102164626495
H     -0.46357235054236406    3.0183685195564127    1.870116347302909
5
0.25 ps
C     -0.4466395682519737    0.6582260399841992    0.14119037117023436
H     -0.005854117574326377    1.7707310387450166    -1.0127451257238549
H     -1.9120921455721456    0.03558902393650856    0.17769559892136158
H     -0.2098008744164515    -1.7363857223044517    -1.1974336436361601
H     -0.42391540039685105    2.903253846067603    1.8361197264211
5
0.255 ps
C     -0.4534311937231766    0.6608478677276236    0.13494155241018982
H     -0.021996168056878176    1.7434031141096402    -0.992316139897997
H     -1.8776367661127138    0.048510309958182084    0.16371631284641594
H     -0.18657582163697176    -1.6197850879666795    -1.0822145358593438
H     -0.38444661876232983    2.7697879804068193    1.7889837511941624
5
0.26 ps
C     -0.46031235149887445    0.663574228620192    0.12860304018748117
H     -0.04001701801779657    1.7113688571928936    -0.9679320790404785
H     -1.8384311420323842    0.06459813806233568    0.1500050138249349
H     -0.16462763752768178    -1.4860977132001516    -0.9577353622325186
H     -0.34550451637145946    2.6195283446011985    1.7294344674760411
5
0.265 ps
C     -0.46721601619351244    0.6663911068545391    0.12224490613083691
H     -0.05976866953476553    1.6750535534482054    -0.9399974318665558
H     -1.7950932164262126    0.0836700554716463    0.13660986570901923
H     -0.14397799711523754    -1.33714728478306    -0.8253801076569599
H     -0.3073969188102468    2.454222966399584    1.6583764051576244
5
0.27 ps
C     -0.474081361197693    0.6692866276389791    0.11593162425000966
H     -0.08107051885106795    1.6349426419791357    -0.9089801680773784
H     -1.748380290310051    0.10555351409509497    0.12361199566265436
H     -0.1245112340730507    -1.1750172842624789    -0.6866167891690991
H     -0.27038830498276717    2.2757840730027636    1.5768954095809893
5
0.275 ps
C     -0.480856929493147    0.6722522076871381    0.10971893348917162
H     -0.10369989509407214    1.5915882322269517    -0.8754306675304898
H     -1.6993397274061106    0.13017470883586574    0.11118162867176609
H     -0.10581080269725575    -1.0021316358568773    -0.5430120080027465
H     -0.23468428171195344    2.0862596614969164    1.4862734101798154
5
0.28 ps
C     -0.48750456332085634    0.6752837115041241    0.10364985569505678
H     -0.12737113362558125    1.5456398093224755    -0.8400441055945201
H     -1.6497757722428077    0.15779453248350686    0.09970283449181264
H     -0.08668865143563803    -0.8215070905984713    -0.3962966062783742
H     -0.2004094476146846    1.8878054311400043    1.3880392112904063
5
0.28500000000000003 ps
C     -0.4940044973608698    0.678382082299374    0.09774939108967498
H     -0.15169359658809695    1.49795391875541    -0.8038511165357234
H     -1.6035270747533164    0.18952757394845623    0.08996544203056818
H     -0.06393075574616848    -0.6373673494116416    -0.248461170829483
H     -0.16756556615823834    1.6826626983186996    1.2841260147705174
5
0.29000000000000004 ps
C     -0.500362212451641    0.6815518324182412    0.09201736956942616
H     -0.1761092179317713    1.4499499306410593    -0.7687756806059306
H     -1.5687606531883735    0.2278386887462524    0.08307878372908298
H     -0.030093105619801    -0.4559828055953226    -0.10149572178623108
H     -0.1359223224092987    1.4731638096682702    1.1773405174730498
5
0.29500000000000004 ps
C     -0.5066170782729715    0.6847943726697693    0.08642010793975147
H     -0.19990696946625297    1.4045705866738003    -0.7390587868489268
H     -1.5573401198564285    0.27484461026747337    0.07921801832969826
H     0.025680999617499176    -0.28524148837181046    0.043954444920086266
H     -0.1047142507747407    1.262120491890696    1.0727956021847092
5
0.3 ps
C     -0.5128465453806016    0.6880962981162861    0.08088739670855756
H     -0.22266373259925118    1.367718787080313    -0.7233680013219707
H     -1.5748900591127333    0.32776958589169347    0.07646274976631223
H     0.10879353730907206    -0.14228393056518665    0.18279443860571348
H     -0.07321807075452465    1.0637060176977142    0.9870115459524654
5
0.305 ps
C     -0.5191293077808516    0.6914184351323429    0.07534660361309081
H     -0.2446182389645552    1.3458175087986768    -0.7310809725818145
H     -1.615326839490533    0.3803399440086446    0.07318989103411896
H     0.23677455051073756    -0.16717427642318966    0.22502452303438417
H     -0.06387010189093358    1.0183024697185616    1.0218551424290914
5
0.31 ps
C     -0.5254068444255051    0.6946666956962122    0.06984425788196429
H     -0.2643935391625492    1.3360078067995254    -0.7573222597115538
H     -1.6683509130946892    0.4293648882159526    0.07053016123844458
H     0.40564444278818834    -0.3526733770466381    0.16833331654307318
H     -0.08506525528288628    1.1258426760657003    1.1730766355345563
5
0.315 ps
C     -0.5314928323582568    0.6977073626965447    0.06453046532961636
H     -0.2801458609469803    1.3321959982591283    -0.7920752126250659
H     -1.7276486686308306    0.4748178587651066    0.06984291644961108
H     0.5774297616070284    -0.5512853645743421    0.10327056444739821
H     -0.10920983038563996    1.2465459232916958    1.3369598855771174
5
0.32 ps
C     -0.5371992895077402    0.700418239496759    0.05955335510297357
H     -0.2917971694604105    1.3316790873454507    -0.8309084575107288
H     -1.7902972876348966    0.5175099428641012    0.07134318243998003
H     0.7448993380990294    -0.7460920721730412    0.03762108221373511
H     -0.13431566920876095    1.3668434544802772    1.499306866003203
5
0.325 ps
C     -0.5423607471732035    0.7026960952947933    0.055043381753738414
H     -0.3001307203240249    1.33315027684797    -0.8719244427843618
H     -1.8542496713975833    0.558240152996177    0.07468552956335114
H     0.9053249190545287    -0.9334747669334003    -0.02801231388590336
H     -0.16089199079130517    1.4848556076098225    1.6564066409657785
5
0.33 ps
C     -0.546834292669286    0.7044549870816084    0.05111428965312445
H     -0.30606994938286974    1.3357577631381319    -0.9139822323144008
H     -1.9177872669043134    0.5975923710953912    0.07936887534712853
H     1.0564895620994519    -1.110822235964897    -0.0931606586282192
H     -0.18922156204776883    1.5992641773647105    1.8057937047477757
5
0.335 ps
C     -0.550498360217191    0.7056249151177012    0.047864026624930014
H     -0.3104104691934014    1.3388867247814138    -0.95622310149354
H     -1.9794500727041202    0.6359197609146024    0.08491786883601066
H     1.1963723482266555    -1.2757926661710246    -0.1572918068438554
H     -0.21939782959751367    1.7088239307443842    1.9453842651299775
5
0.34 ps
C     -0.553251882970361    0.7061509914407427    0.04537513988747535
H     -0.31376277398138774    1.342082055971864    -0.9979410913242216
H     -2.038007278386734    0.6733874263684844    0.09093971760366254
H     1.3231218139886882    -1.426241896871504    -0.21983503270475852
H     -0.251395121742644    1.8123353855393107    2.0733098471517937
5
0.34500000000000003 ps
C     -0.5550138449423234    0.7059929183291567    0.0437148302395396
H     -0.316572691831089    1.3449984386571874    -1.0385320581704456
H     -2.0924191947318302    0.7100244803762471    0.09712604983343164
H     1.4350678954590381    -1.5602285163914484    -0.28020228082685805
H     -0.2851035544747636    1.908653986581916    2.1878850855818652
5
0.35000000000000003 ps
C     -0.5557230813054307    0.7051246180609756    0.04293484215212999
H     -0.3191597744250109    1.3473646405711135    -1.077464726002869
H     -2.1418005475694293    0.745767360701087    0.1032377809661139
H     1.5307397336771436    -1.6760316382033837    -0.3378036117123818
H     -0.32034753525808757    1.9967046840707998    2.287610666888954
5
0.35500000000000004 ps
C     -0.5553381721404844    0.7035339028973782    0.043071327717892884
H     -0.3217517112018251    1.3489598055761407    -1.114262608119239
H     -2.185392850784886    0.7804912224459782    0.10908887080483454
H     1.6088829297127492    -1.772169754886687    -0.3920596542666772
H     -0.35689749823307304    2.0754970409654225    2.3711855691187362
5
0.36000000000000004 ps
C     -0.5538373074933676    0.7012221096798538    0.04414478246679659
H     -0.3245096734872831    1.3495988512474668    -1.148493450149085
H     -2.222546787207866    0.8140316495451758    0.1145337044352735
H     1.6684745589076615    -1.847417764807038    -0.4424123856635965
H     -0.3944788029762673    2.144139508935191    2.437520669402568
5
0.365 ps
C     -0.5512180358832963    0.6982036489220521    0.04616011952958815
H     -0.32754545019370956    1.3491240069240642    -1.1797640168416907
H     -2.2527125257480605    0.846199759606149    0.11945844923060384
H     1.7087353371705092    -1.9008211976723526    -0.4883348247957329
H     -0.4327794476295996    2.2018523892326987    2.4857509826055755
5
0.37 ps
C     -0.5474968362798971    0.6945054365065124    0.04910692589003407
H     -0.3309325876786427    1.3474002047228792    -1.2077184946450152
H     -2.2754354392977527    0.876793135094462    0.12377548367004008
H     1.7291386410715683    -1.9317072016769576    -0.5293399155464168
H     -0.47145733648056726    2.2479792760803123    2.515245461908516
5
0.375 ps
C     -0.5427084746268513    0.6901661892773564    0.05295992855413377
H     -0.3347135370682304    1.3443127961792272    -1.2320392291248634
H     -2.2903551558363278    0.9056041943646551    0.12741989662319922
H     1.7294162023585433    -1.9396920491353589    -0.5649887340942479
H     -0.5101474511191522    2.2819968764560605    2.5256138840103457
5
0.38 ps
C     -0.5369051216030251    0.6852355755506162    0.057679687393573896
H     -0.3389042552087535    1.3397666462810873    -1.2524489217483894
H     -2.2972064980800506    0.9324269831766598    0.13034728375483895
H     1.7095603640883001    -1.9246850160620654    -0.5948980850652501
H     -0.5484690888789406    2.3035231364171422    2.516710581763688
5
0.385 ps
C     -0.5301552198510457    0.6797732189007878    0.06321352380469102
H     -0.3434971877204604    1.3336860377038902    -1.2687137318169408
H     -2.295821395734637    0.9570629471919909    0.1325323280991226
H     1.6698228351054805    -1.886888559531012    -0.6187475188778248
H     -0.5860332331489169    2.312323624071676    2.4886349062916633
5
0.39 ps
C     -0.5225420973224048    0.6738475591751818    0.0694966894042667
H     -0.34846315900721897    1.3260150542405693    -1.280646975441171
H     -2.286131262190639    0.9793259791881503    0.13396786700747554
H     1.6107099210133757    -1.8267947740605475    -0.6362857928334562
H     -0.6224500569759255    2.3083161405790444    2.441728380478067
5
0.395 ps
C     -0.5141623291855179    0.6675345788980325    0.07645377654009337
H     -0.3537523786321414    1.3167182595583098    -1.2881133185886304
H     -2.2681696651674907    0.9990468556515549    0.13466430965154239
H     1.5329742444981838    -1.7451781614342459    -0.6473368059383843
H     -0.6573365047230714    2.291573565445528    2.3765685854583705
5
0.4 ps
C     -0.5051238539866334    0.6609164062045711    0.08400037271258466
H     -0.3592944928248097    1.3057815903507468    -1.2910335719843467
H     -2.2420754765013147    1.016077022341962    0.13464937552777675
H     1.437602995417975    -1.6430848024082458    -0.6518050609050274
H     -0.6903238103684076    2.262325013029196    2.2939599458910767
5
0.405 ps
C     -0.49554385005223356    0.6540798071658426    0.09204496496563469
H     -0.36499730058983093    1.2932134844458452    -1.289390476986723
H     -2.208097214905978    1.0302914663339189    0.13396812206806422
H     1.3258027733059727    -1.521818086565617    -0.6496807466080503
H     -0.7210646103648507    2.220955545052017    2.1949218560428982
5
0.41000000000000003 ps
C     -0.48554637448091553    0.6471145806239577    0.10049110969371626
H     -0.3707433437368665    1.2790464369023145    -1.2832363335460362
H     -2.1666003575741364    1.0415899066688061    0.13268286940333848
H     1.1989811184204802    -1.3829212850274624    -0.6410445856420885
H     -0.749238734000908    2.1680051421769053    2.080675350151038
5
0.41500000000000004 ps
C     -0.47525975756871963    0.6401118670619022    0.10923990152749453
H     -0.37638301242987765    1.2633396334434654    -1.2727041907804604
H     -2.1180820478226448    1.049894065493373    0.13087092196825054
H     1.0587249547818476    -1.2281576244711974    -0.6260726140655744
H     -0.7745549112543044    2.104169044421603    1.9526319034868247
5
0.42000000000000004 ps
C     -0.46481372676820104    0.6331623791516117    0.11819280865302106
H     -0.3817222281644567    1.246184873005203    -1.2580261701943714
H     -2.063205526588599    1.0551338709945581    0.1286109694261792
H     0.9067767677503191    -1.059489924269944    -0.6050408228095941
H     -0.7967391398960505    2.0303063679662703    1.8123961777670665
5
0.42500000000000004 ps
C     -0.4543362013380192    0.6263545562593316    0.12725500491228306
H     -0.38650357802726704    1.2277243772821436    -1.2395672127632935
H     -2.0028943860397046    1.057197100754538    0.12592000741702467
H     0.7450121898500269    -0.8790679603076558    -0.578327813286737
H     -0.8154751152855276    1.9474820282184822    1.661825759445926
5
0.43 ps
C     -0.44394965041540113    0.6197726479478192    0.1363394520045516
H     -0.3903904433254704    1.208219551553302    -1.2178987690959038
H     -1.9386401841149847    1.0557411878013168    0.12247651400400987
H     0.575436800262416    -0.6892617595193353    -0.5464026541233931
H     -0.8301527258115882    1.8571423265189564    1.5033208396754396
5
0.435 ps
C     -0.4337668904591526    0.6134948027842468    0.14537223430148893
H     -0.39303302111790195    1.1883778141140362    -1.1940172641314004
H     -1.8736852715661905    1.0494368018832207    0.1164071124810727
H     0.40029518399786673    -0.49294683840845366    -0.5097133982095815
H     -0.8387783895213746    1.7618525737104946    1.3410809021983994
5
0.44 ps
C     -0.4238865922317306    0.6075916973890743    0.1543000578831531
H     -0.39469935029298814    1.171173132196448    -1.1703371382710188
H     -1.8176345934644653    1.033096189735101    0.09951836937412413
H     0.22280225914105728    -0.29527840779446474    -0.4678754505276447
H     -0.8335171442859051    1.6681387707286621    1.1859648894995047
5
0.445 ps
C     -0.41439125531787646    0.6021281806137406    0.16309971475190804
H     -0.39961611358753474    1.1716456194261937    -1.1563189570385448
H     -1.7951388156210923    0.9930215252137167    0.04965827611690053
H     0.05070327022782723    -0.11346420189936768    -0.41428829328614036
H     -0.7922528716814808    1.5910928791545291    1.0632616714420204
5
0.45 ps
C     -0.4053541363500366    0.5971741707954351    0.171772929767181
H     -0.4194061964845446    1.2341919255674734    -1.1817141038987282
H     -1.8238960308660663    0.9220047062269522    -0.04358734138121514
H     -0.09998322448674703    0.00575780202301193    -0.32277275079476164
H     -0.7008093826210705    1.5394303770822662    0.9869370566173378
5
0.455 ps
C     -0.3968487008616437    0.5928328140700718    0.18028395725961827
H     -0.45022141839121355    1.3642413915768854    -1.2559666010734671
H     -1.8853532072466161    0.8348126620132863    -0.15510730288822333
H     -0.2282072719465948    0.053067809962881574    -0.18660907261142412
H     -0.5817615820091406    1.501044512022262    0.9350304933107211
5
0.46 ps
C     -0.38894036371213186    0.5892640081155904    0.18849178621868848
H     -0.4794115149474932    1.5148462977864507    -1.3467650982504435
H     -1.9633735566173167    0.7442056642021131    -0.26824967777256387
H     -0.34194724987604885    0.0657923030984975    -0.03957489963137045
H     -0.45513790840373264    1.4708890700903168    0.8940382513518759
5
0.465 ps
C     -0.38166835512959985    0.586647681962375    0.19614535777209424
H     -0.5053474199732094    1.6665306003158893    -1.4369332523003902
H     -2.0527953147191598    0.6553799691591833    -0.3806870509601653
H     -0.44124992057830553    0.0434692306138379    0.09729992645667829
H     -0.3272145111030042    1.4615597847669843    0.8684809207953623
5
0.47000000000000003 ps
C     -0.3750652852154193    0.5851061997153754    0.20292531299570635
H     -0.5287982806421326    1.814090180779942    -1.5207875110235036
H     -2.1482049836870107    0.5691031544556288    -0.49281013266853674
H     -0.5325860766817833    -0.02501705506019346    0.21785536173156328
H     -0.19577599094291556    1.4871493456623632    0.8630348595261396
5
0.47500000000000003 ps
C     -0.3692071535210057    0.5846743203215946    0.20854538617779386
H     -0.550139608018053    1.9550943380631647    -1.595641782748847
H     -2.242809121101474    0.4845930256906128    -0.6035416323703194
H     -0.6229280680450917    -0.1256306969655949    0.33063080625562763
H     -0.05936144420491844    1.5364202037354595    0.8688117216923084
5
0.48000000000000004 ps
C     -0.3642164396789916    0.585340637617344    0.2128080272921386
H     -0.5694367110066325    2.087788494980051    -1.6597683783745942
H     -2.3313552679106353    0.4013708604308199    -0.7110358967434436
H     -0.7130884919241651    -0.2390110276934837    0.44299796038622546
H     0.07911545295110961    1.592381038298555    0.8772227439216614
5
0.48500000000000004 ps
C     -0.3602308027249851    0.5870800875107661    0.21558871614484384
H     -0.5866411057705109    2.210688880146033    -1.7118765375974236
H     -2.4104541497880327    0.3194989315204239    -0.8135905196933777
H     -0.8023345216367964    -0.3560113182246684    0.5564492109349629
H     0.21712604485161827    1.647605571015166    0.8852675885448505
5
0.49000000000000005 ps
C     -0.3573803623438907    0.5898607504045266    0.21681384636080725
H     -0.6016784437942395    2.322483000455609    -1.7509534572541916
H     -2.4778643232718642    0.23938111991907587    -0.9098218018372191
H     -0.8899626097116679    -0.4727174672205148    0.6704617283307861
H     0.3532029955588546    1.6994690339274579    0.8919505231741279
5
0.49500000000000005 ps
C     -0.35577682762919083    0.5936426336281969    0.2164486054276314
H     -0.6144827399382949    2.42200930559889    -1.7762157905125455
H     -2.531976752552641    0.16159463391466689    -0.9985987940029024
H     -0.9752079369379508    -0.5867602570431087    0.7840971781486323
H     0.486238875957479    1.7466635642938924    0.8967108127310396
