2
0.0 ps
C     -2.4197399545676674    0.9696599996098172    0.0
H     -0.8932305418944831    0.9565500046539077    0.0
2
0.005 ps
C     -2.419506248176369    0.9696579924884812    0.0
H     -0.8960180766172974    0.9565739446085867    0.0
2
0.01 ps
C     -2.418821868878468    0.9696521148901714    0.0
H     -0.9041810157901685    0.956644049706199    0.0
2
0.015000000000000001 ps
C     -2.417696013873117    0.9696424458024352    0.0
H     -0.9176096597517115    0.956759377822186    0.0
2
0.02 ps
C     -2.416143813239106    0.969629115165681    0.0
H     -0.9361235443744528    0.9569183790913582    0.0
2
0.025 ps
C     -2.4141861266055917    0.9696123021269419    0.0
H     -0.9594738662762972    0.9571189167361379    0.0
2
0.030000000000000002 ps
C     -2.4118492628248416    0.9695922326323658    0.0
H     -0.9873468264258374    0.9573582957821712    0.0
2
0.035 ps
C     -2.409164626414278    0.96956917639078    0.0
H     -1.0193678472076488    0.9576332992754008    0.0
2
0.04 ps
C     -2.406168295519153    0.9695434432491469    0.0
H     -1.0551066062755046    0.9579402315138926    0.0
2
0.045000000000000005 ps
C     -2.40290053706755    0.9695153790286047    0.0
H     -1.0940828195448273    0.9582749677134333    0.0
2
0.05 ps
C     -2.3994052656333786    0.9694853608770677    0.0
H     -1.135772695608235    0.9586330094394565    0.0
2
0.055 ps
C     -2.3957294532795985    0.9694537922008336    0.0
H     -1.1796159748349109    0.9590095450603575    0.0
2
0.060000000000000005 ps
C     -2.3919224983126277    0.9694210972433056    0.0
H     -1.2250234585571516    0.9593995144097881    0.0
2
0.065 ps
C     -2.3880355614310744    0.9693877153836936    0.0
H     -1.2713849271612572    0.9597976767889407    0.0
2
0.07 ps
C     -2.3841208781901364    0.9693540952323101    0.0
H     -1.3180773406735748    0.960198681394968    0.0
2
0.075 ps
C     -2.3802310570212706    0.9693206886018111    0.0
H     -1.3644732116360767    0.9605971392290588    0.0
2
0.08 ps
C     -2.3764183722408787    0.9692879444353985    0.0
H     -1.4099490377505761    0.9609876955178225    0.0
2
0.085 ps
C     -2.372734061549073    0.9692563027735885    0.0
H     -1.453893680967363    0.9613651016747246    0.0
2
0.09000000000000001 ps
C     -2.369227637459268    0.969226188840619    0.0
H     -1.4957165804138757    0.9617242858345033    0.0
2
0.095 ps
C     -2.3659462219121274    0.969198007329968    0.0
H     -1.534855688791918    0.9620604210126782    0.0
2
0.1 ps
C     -2.362933913015792    0.969172136965784    0.0
H     -1.570785025588211    0.9623689899741651    0.0
2
0.10500000000000001 ps
C     -2.3602311924226362    0.9691489254133042    0.0
H     -1.603021745592604    0.9626458459392476    0.0
2
0.11 ps
C     -2.3578743813066345    0.9691286846066726    0.0
H     -1.631132627731929    0.9628872683110938    0.0
2
0.115 ps
C     -2.3558951522523692    0.9691116865569369    0.0
H     -1.6547398970177158    0.9630900126759107    0.0
2
0.12000000000000001 ps
C     -2.3543201036152177    0.9690981596965608    0.0
H     -1.6735263013680763    0.963251354403795    0.0
2
0.125 ps
C     -2.3531704020728332    0.9690882858095762    0.0
H     -1.6872393750776769    0.963369125264341    0.0
2
0.13 ps
C     -2.35246149817155    0.969082197588637    0.0
H     -1.6956948316400702    0.9634417425649371    0.0
2
0.135 ps
C     -2.3522029186904185    0.9690799768517939    0.0
H     -1.6987790403271448    0.9634682304201673    0.0
2
0.14 ps
C     -2.3523981386132533    0.9690816534429647    0.0
H     -1.6964505532435463    0.9634482328664887    0.0
2
0.14500000000000002 ps
C     -2.3530445344292192    0.9690872048308674    0.0
H     -1.6887406623343952    0.9633820186459332    0.0
2
0.15 ps
C     -2.354133419389498    0.969096556411813    0.0
H     -1.6757529788607983    0.9632704775945555    0.0
2
0.155 ps
C     -2.3556501602463262    0.969109582512286    0.0
H     -1.6576620409944944    0.9631151086841472    0.0
2
0.16 ps
C     -2.357574373905467    0.9691261080778383    0.0
H     -1.6347109682437937    0.962917999877941    0.0
2
0.165 ps
C     -2.3598802013494313    0.969145911025602    0.0
H     -1.6072081942324057    0.9626818000710035    0.0
2
0.17 ps
C     -2.3625366551502287    0.9691687252288033    0.0
H     -1.5755233217384836    0.962409683492406    0.0
2
0.17500000000000002 ps
C     -2.36550803590152    0.9691942440931731    0.0
H     -1.5400821556969968    0.9621053070475717    0.0
2
0.18000000000000002 ps
C     -2.3687544119738577    0.969222124677191    0.0
H     -1.5013609809156017    0.9617727611740542    0.0
2
0.185 ps
C     -2.3722321561456825    0.9692519923007857    0.0
H     -1.4598801614043702    0.9614165148711853    0.0
2
0.19 ps
C     -2.375894531898451    0.9692834455805666    0.0
H     -1.4161971473363382    0.9610413556423351    0.0
2
0.195 ps
C     -2.3796923214968024    0.9693160618239153    0.0
H     -1.3708989836165413    0.9606523251568704    0.0
2
0.2 ps
C     -2.383574487413188    0.9693494027094408    0.0
H     -1.3245944207349987    0.9602546514964444    0.0
2
0.20500000000000002 ps
C     -2.3874888582081946    0.969383020177471    0.0
H     -1.2779057339238444    0.9598536788961377    0.0
2
0.21000000000000002 ps
C     -2.3913828296492476    0.9694164624514111    0.0
H     -1.2314603605589165    0.9594547959246444    0.0
2
0.215 ps
C     -2.3952040716454945    0.9694492801090558    0.0
H     -1.1858824681885878    0.9590633630686688    0.0
2
0.22 ps
C     -2.3989012314985767    0.969481032122258    0.0
H     -1.141784566504995    0.9586846406947103    0.0
2
0.225 ps
C     -2.4024246240184692    0.9695112917837968    0.0
H     -1.099759275982219    0.9583237183563343    0.0
2
0.23 ps
C     -2.4057268992301006    0.9695396524417846    0.0
H     -1.060371363800602    0.9579854463969626    0.0
2
0.23500000000000001 ps
C     -2.4087636786976057    0.9695657329645587    0.0
H     -1.024150154084401    0.9576743707673372    0.0
2
0.24000000000000002 ps
C     -2.4114941519148396    0.9695891828626123    0.0
H     -0.9915824144496285    0.95739467193365    0.0
2
0.24500000000000002 ps
C     -2.413881624747374    0.9696096869987362    0.0
H     -0.9631058144579918    0.9571501086973196    0.0
2
0.25 ps
C     -2.415894012555627    0.969626969823065    0.0
H     -0.9391030438870749    0.956943967681418    0.0
2
0.255 ps
C     -2.4175042713721635    0.9696407990761223    0.0
H     -0.9198966698598456    0.9567790191625765    0.0
2
0.26 ps
C     -2.4186907613386945    0.9696509889100975    0.0
H     -0.9057448019472085    0.9566574798419465    0.0
2
0.265 ps
C     -2.4194375375186246    0.9696574023864054    0.0
H     -0.8968376234991938    0.9565809830555166    0.0
2
0.27 ps
C     -2.4197345641769887    0.969659953315971    0.0
H     -0.8932948358193351    0.9565505568241242    0.0
2
0.275 ps
C     -2.419577849648143    0.9696586074175017    0.0
H     -0.8951640495293219    0.9565666100381472    0.0
2
0.28 ps
C     -2.4189694999787434    0.969653382778183    0.0
H     -0.9024201447419797    0.9566289269625291    0.0
2
0.28500000000000003 ps
C     -2.417917690625122    0.9696443496106137    0.0
H     -0.9149656086410348    0.9567366701359877    0.0
2
0.29000000000000004 ps
C     -2.4164365565854076    0.9696316293092333    0.0
H     -0.9326318459310291    0.9568883916254454    0.0
2
0.29500000000000004 ps
C     -2.414546002442881    0.9696153928189327    0.0
H     -0.9551814445465748    0.9570820524844311    0.0
2
0.3 ps
C     -2.4122714348733645    0.9695958583377725    0.0
H     -0.982311366172658    0.9573150501539632    0.0
2
0.305 ps
C     -2.409643421211352    0.9695732883846714    0.0
H     -1.0136570186994045    0.9575842534376791    0.0
2
0.31 ps
C     -2.4066972786633962    0.9695479862714833    0.0
H     -1.0487971558826286    0.9578860445811835    0.0
2
0.315 ps
C     -2.403472599689155    0.9695202920268653    0.0
H     -1.0872595383648607    0.9582163678901315    0.0
2
0.32 ps
C     -2.400012719928409    0.9694905778267202    0.0
H     -1.128527279979853    0.9585707842336686    0.0
2
0.325 ps
C     -2.396364135824433    0.9694592429926192    0.0
H     -1.1720457940541726    0.9589445307007828    0.0
2
0.33 ps
C     -2.3925758797701286    0.969426708625421    0.0
H     -1.2172302463563156    0.9593325846078524    0.0
2
0.335 ps
C     -2.3886988611741726    0.9693934119462037    0.0
H     -1.2634734145350606    0.9597297309972134    0.0
2
0.34 ps
C     -2.3847851823024513    0.9693598004205617    0.0
H     -1.31015384842605    0.9601306327196462    0.0
2
0.34500000000000003 ps
C     -2.3808874380889593    0.9693263257452314    0.0
H     -1.356644221562341    0.960529902158967    0.0
2
0.35000000000000003 ps
C     -2.3770580093258715    0.9692934377778523    0.0
H     -1.4023197616550882    0.9609221736348272    0.0
2
0.35500000000000004 ps
C     -2.3733483587314295    0.9692615784914452    0.0
H     -1.4465666467492742    0.9613021755107305    0.0
2
0.36000000000000004 ps
C     -2.3698083393555485    0.9692311760348503    0.0
H     -1.4887902542206923    0.9616648010382085    0.0
2
0.365 ps
C     -2.366485524617384    0.9692026389789408    0.0
H     -1.5284231517580136    0.962005176985117    0.0
2
0.37 ps
C     -2.3634245689782665    0.9691763508259458    0.0
H     -1.5649327229411596    0.9623187291257584    0.0
2
0.375 ps
C     -2.36066660784176    0.9691526648556607    0.0
H     -1.5978283249377718    0.962601243712741    0.0
2
0.38 ps
C     -2.358248704745442    0.9691318993778105    0.0
H     -1.6266678821273328    0.9628489241044547    0.0
2
0.385 ps
C     -2.356203353273462    0.9691143334543662    0.0
H     -1.6510638270428788    0.9630584417871706    0.0
2
0.39 ps
C     -2.354558040383537    0.9691002031492998    0.0
H     -1.6706883087915212    0.9632269811060911    0.0
2
0.395 ps
C     -2.353334877016724    0.969089698356184    0.0
H     -1.6852775989591289    0.9633522771042157    0.0
2
0.4 ps
C     -2.3525503009541104    0.9690829602462593    0.0
H     -1.6946356357893504    0.9634326459605246    0.0
2
0.405 ps
C     -2.3522148559136613    0.9690800793712698    0.0
H     -1.6986366590076356    0.9634670076184189    0.0
2
0.41000000000000003 ps
C     -2.3523330498558788    0.9690810944465609    0.0
H     -1.6972268998815505    0.9634549003003251    0.0
2
0.41500000000000004 ps
C     -2.3529032944024593    0.9690859918307941    0.0
H     -1.6904253038050905    0.9633964867134093    0.0
2
0.42000000000000004 ps
C     -2.3539179261821213    0.9690947057092693    0.0
H     -1.678323275696344    0.9632925518629943    0.0
2
0.42500000000000004 ps
C     -2.355363309816683    0.9691071189783926    0.0
H     -1.661083451630075    0.9631444925030758    0.0
2
0.43 ps
C     -2.357220021163458    0.9691230648194    0.0
H     -1.6389375132129165    0.9629542983656968    0.0
2
0.435 ps
C     -2.3594631083513384    0.9691423289401943    0.0
H     -1.6121830740732421    0.9627245254214497    0.0
2
0.44 ps
C     -2.362062427102668    0.9691646524551595    0.0
H     -1.5811796803073817    0.962458261530436    0.0
2
0.445 ps
C     -2.364983045834491    0.9691897353642628    0.0
H     -1.546343978631169    0.9621590849452998    0.0
2
0.45 ps
C     -2.368185715095217    0.969217240584673    0.0
H     -1.508144117170798    0.9618310162240034    0.0
2
0.455 ps
C     -2.3716273950280033    0.9692467984807357    0.0
H     -1.4670934541393401    0.9614784641985707    0.0
2
0.46 ps
C     -2.375261833772427    0.9692780118314115    0.0
H     -1.4237436589464076    0.9611061667259176    0.0
2
0.465 ps
C     -2.379040189031477    0.9693104611684258    0.0
H     -1.3786772984534088    0.9607191270169974    0.0
2
0.47000000000000003 ps
C     -2.382911684450737    0.9693437104134011    0.0
H     -1.3325000080058091    0.9603225463999238    0.0
2
0.47500000000000003 ps
C     -2.386824291988891    0.9693773127381978    0.0
H     -1.285832352453907    0.9599217544206465    0.0
2
0.48000000000000004 ps
C     -2.390725431109322    0.969410816569728    0.0
H     -1.2393014865397984    0.9595221372205396    0.0
2
0.48500000000000004 ps
C     -2.394562675396564    0.9694437716585287    0.0
H     -1.193532726724463    0.9591290651534186    0.0
2
0.49000000000000005 ps
C     -2.398284457101541    0.969475735129552    0.0
H     -1.1491411477190376    0.9587478206147241    0.0
2
0.49500000000000005 ps
C     -2.401840760147426    0.9695062774338487    0.0
H     -1.1067233166523653    0.9583835270527525    0.0
